
  EPA STORM WATER MANAGEMENT MODEL - VERSION 5.1 (Build 5.1.013)
  --------------------------------------------------------------

  Scenario Run: BASE 
  
  
  *********************
  Rainfall File Summary
  *********************
  Station    First        Last         Recording   Periods    Periods    Periods
  ID         Date         Date         Frequency  w/Precip    Missing    Malfunc.
  -------------------------------------------------------------------------------
  rg_1       01/01/2000   01/02/2000      60 min       241          0          0

  
  *********************************************************
  NOTE: The summary statistics displayed in this report are
  based on results found at every computational time step,  
  not just on results from each reporting time step.
  *********************************************************
  
  ****************
  Analysis Options
  ****************
  Flow Units ............... CMS
  Process Models:
    Rainfall/Runoff ........ YES
    RDII ................... NO
    Snowmelt ............... NO
    Groundwater ............ NO
    Flow Routing ........... YES
    Ponding Allowed ........ NO
    Water Quality .......... NO
  Infiltration Method ...... MODIFIED_GREEN_AMPT
  Flow Routing Method ...... KINWAVE
  Starting Date ............ 01/01/2000 00:00:00
  Ending Date .............. 01/02/2000 00:00:00
  Antecedent Dry Days ...... 5.0
  Report Time Step ......... 00:05:00
  Wet Time Step ............ 00:15:00
  Dry Time Step ............ 01:00:00
  Routing Time Step ........ 60.00 sec
  
  
  **************************        Volume         Depth
  Runoff Quantity Continuity     hectare-m            mm
  **************************     ---------       -------
  Total Precipitation ......         0.119         9.888
  Evaporation Loss .........         0.000         0.000
  Infiltration Loss ........         0.016         1.310
  Surface Runoff ...........         0.099         8.223
  Final Storage ............         0.005         0.380
  Continuity Error (%) .....        -0.248
  
  
  **************************        Volume        Volume
  Flow Routing Continuity        hectare-m      10^6 ltr
  **************************     ---------     ---------
  Dry Weather Inflow .......         0.000         0.000
  Wet Weather Inflow .......         0.099         0.986
  Groundwater Inflow .......         0.000         0.000
  RDII Inflow ..............         0.000         0.000
  External Inflow ..........         0.000         0.000
  External Outflow .........         0.098         0.977
  Flooding Loss ............         0.000         0.000
  Evaporation Loss .........         0.000         0.000
  Exfiltration Loss ........         0.000         0.000
  Initial Stored Volume ....         0.000         0.000
  Final Stored Volume ......         0.001         0.005
  Continuity Error (%) .....         0.356
  
  
  ********************************
  Highest Flow Instability Indexes
  ********************************
  All links are stable.
  
  
  *************************
  Routing Time Step Summary
  *************************
  Minimum Time Step           :    60.00 sec
  Average Time Step           :    60.00 sec
  Maximum Time Step           :    60.00 sec
  Percent in Steady State     :     0.00
  Average Iterations per Step :     1.04
  Percent Not Converging      :     0.00
  
  
  ***************************
  Subcatchment Runoff Summary
  ***************************
  
  ------------------------------------------------------------------------------------------------------------------------------
                            Total      Total      Total      Total     Imperv       Perv      Total       Total     Peak  Runoff
                           Precip      Runon       Evap      Infil     Runoff     Runoff     Runoff      Runoff   Runoff   Coeff
  Subcatchment                 mm         mm         mm         mm         mm         mm         mm    10^6 ltr      CMS
  ------------------------------------------------------------------------------------------------------------------------------
  S1                         9.89       0.00       0.00       0.20       9.30       0.11       9.41        0.38     0.08   0.952
  S2                         9.89       0.00       0.00       3.31       1.49       5.11       6.60        0.26     0.11   0.667
  S3                         9.89       0.00       0.00       0.42       8.73       0.42       8.66        0.35     0.07   0.876
  

  ***********************
  LID Performance Summary
  ***********************

  --------------------------------------------------------------------------------------------------------------------
                                         Total      Evap     Infil   Surface    Drain    Initial     Final  Continuity
                                        Inflow      Loss      Loss   Outflow   Outflow   Storage   Storage       Error
  Subcatchment      LID Control             mm        mm        mm        mm        mm        mm        mm           %
  --------------------------------------------------------------------------------------------------------------------
  S3                rb                 5250.53      0.00      0.00   4250.53      0.00      0.00   1000.00       -0.00
  
  ******************
  Node Depth Summary
  ******************
  
  ---------------------------------------------------------------------------------
                                 Average  Maximum  Maximum  Time of Max    Reported
                                   Depth    Depth      HGL   Occurrence   Max Depth
  Node                 Type       Meters   Meters   Meters  days hr:min      Meters
  ---------------------------------------------------------------------------------
  J3                   JUNCTION     0.02     0.11    93.11     0  13:00        0.11
  J1                   JUNCTION     0.02     0.11    96.11     0  13:00        0.11
  J4                   JUNCTION     0.02     0.14    88.14     0  13:02        0.14
  J2                   JUNCTION     0.02     0.14    90.14     0  13:00        0.14
  OUT1                 OUTFALL      0.02     0.14    85.14     0  13:03        0.14
  
  
  *******************
  Node Inflow Summary
  *******************
  
  -------------------------------------------------------------------------------------------------
                                  Maximum  Maximum                  Lateral       Total        Flow
                                  Lateral    Total  Time of Max      Inflow      Inflow     Balance
                                   Inflow   Inflow   Occurrence      Volume      Volume       Error
  Node                 Type           CMS      CMS  days hr:min    10^6 ltr    10^6 ltr     Percent
  -------------------------------------------------------------------------------------------------
  J3                   JUNCTION     0.069    0.069     0  13:00       0.346       0.346       0.000
  J1                   JUNCTION     0.084    0.084     0  13:00       0.376       0.376       0.000
  J4                   JUNCTION     0.000    0.242     0  13:02           0       0.979       0.000
  J2                   JUNCTION     0.110    0.179     0  13:00       0.264       0.637       0.000
  OUT1                 OUTFALL      0.000    0.241     0  13:03           0       0.977       0.000
  
  
  *********************
  Node Flooding Summary
  *********************
  
  No nodes were flooded.
  
  
  ***********************
  Outfall Loading Summary
  ***********************
  
  -----------------------------------------------------------
                         Flow       Avg       Max       Total
                         Freq      Flow      Flow      Volume
  Outfall Node           Pcnt       CMS       CMS    10^6 ltr
  -----------------------------------------------------------
  OUT1                  92.57     0.012     0.241       0.977
  -----------------------------------------------------------
  System                92.57     0.012     0.241       0.977
  
  
  ********************
  Link Flow Summary
  ********************
  
  -----------------------------------------------------------------------------
                                 Maximum  Time of Max   Maximum    Max/    Max/
                                  |Flow|   Occurrence   |Veloc|    Full    Full
  Link                 Type          CMS  days hr:min     m/sec    Flow   Depth
  -----------------------------------------------------------------------------
  C3                   CONDUIT     0.066     0  13:03      1.26    0.01    0.07
  C4                   CONDUIT     0.241     0  13:03      2.54    0.01    0.07
  C2                   CONDUIT     0.179     0  13:01      2.76    0.04    0.14
  C1                   CONDUIT     0.081     0  13:02      1.85    0.02    0.11
  
  
  *************************
  Conduit Surcharge Summary
  *************************
  
  No conduits were surcharged.
  
  
  ********************
  Subcatchment Results
  ********************
  
  <<< Subcatchment S1 >>>
  ---------------------------------------------------
  Date        Time        Precip.    Losses    Runoff
                            mm/hr     mm/hr       CMS
  ---------------------------------------------------
   01/01/2000 00:05:00      0.000     0.000    0.0000
   01/01/2000 00:10:00      0.000     0.000    0.0000
   01/01/2000 00:15:00      0.000     0.000    0.0000
   01/01/2000 00:20:00      0.000     0.000    0.0000
   01/01/2000 00:25:00      0.000     0.000    0.0000
   01/01/2000 00:30:00      0.000     0.000    0.0000
   01/01/2000 00:35:00      0.000     0.000    0.0000
   01/01/2000 00:40:00      0.000     0.000    0.0000
   01/01/2000 00:45:00      0.000     0.000    0.0000
   01/01/2000 00:50:00      0.000     0.000    0.0000
   01/01/2000 00:55:00      0.000     0.000    0.0000
   01/01/2000 01:00:00      0.101     0.000    0.0000
   01/01/2000 01:05:00      0.101     0.003    0.0000
   01/01/2000 01:10:00      0.101     0.003    0.0000
   01/01/2000 01:15:00      0.103     0.003    0.0000
   01/01/2000 01:20:00      0.103     0.003    0.0000
   01/01/2000 01:25:00      0.105     0.003    0.0000
   01/01/2000 01:30:00      0.105     0.003    0.0000
   01/01/2000 01:35:00      0.105     0.003    0.0000
   01/01/2000 01:40:00      0.107     0.003    0.0000
   01/01/2000 01:45:00      0.107     0.003    0.0000
   01/01/2000 01:50:00      0.109     0.003    0.0000
   01/01/2000 01:55:00      0.109     0.003    0.0000
   01/01/2000 02:00:00      0.111     0.003    0.0000
   01/01/2000 02:05:00      0.111     0.003    0.0000
   01/01/2000 02:10:00      0.111     0.003    0.0000
   01/01/2000 02:15:00      0.113     0.004    0.0000
   01/01/2000 02:20:00      0.113     0.004    0.0000
   01/01/2000 02:25:00      0.115     0.004    0.0000
   01/01/2000 02:30:00      0.115     0.004    0.0000
   01/01/2000 02:35:00      0.115     0.004    0.0000
   01/01/2000 02:40:00      0.117     0.004    0.0003
   01/01/2000 02:45:00      0.117     0.004    0.0003
   01/01/2000 02:50:00      0.119     0.004    0.0004
   01/01/2000 02:55:00      0.119     0.004    0.0004
   01/01/2000 03:00:00      0.121     0.004    0.0004
   01/01/2000 03:05:00      0.121     0.004    0.0005
   01/01/2000 03:10:00      0.121     0.004    0.0005
   01/01/2000 03:15:00      0.123     0.004    0.0005
   01/01/2000 03:20:00      0.123     0.004    0.0006
   01/01/2000 03:25:00      0.125     0.004    0.0006
   01/01/2000 03:30:00      0.125     0.004    0.0007
   01/01/2000 03:35:00      0.125     0.004    0.0007
   01/01/2000 03:40:00      0.127     0.004    0.0007
   01/01/2000 03:45:00      0.127     0.004    0.0008
   01/01/2000 03:50:00      0.129     0.004    0.0008
   01/01/2000 03:55:00      0.129     0.004    0.0008
   01/01/2000 04:00:00      0.131     0.004    0.0009
   01/01/2000 04:05:00      0.131     0.004    0.0009
   01/01/2000 04:10:00      0.131     0.004    0.0009
   01/01/2000 04:15:00      0.133     0.004    0.0010
   01/01/2000 04:20:00      0.133     0.004    0.0010
   01/01/2000 04:25:00      0.135     0.004    0.0010
   01/01/2000 04:30:00      0.135     0.004    0.0010
   01/01/2000 04:35:00      0.135     0.004    0.0011
   01/01/2000 04:40:00      0.137     0.004    0.0011
   01/01/2000 04:45:00      0.137     0.004    0.0011
   01/01/2000 04:50:00      0.139     0.004    0.0011
   01/01/2000 04:55:00      0.139     0.004    0.0012
   01/01/2000 05:00:00      0.141     0.004    0.0012
   01/01/2000 05:05:00      0.141     0.004    0.0012
   01/01/2000 05:10:00      0.143     0.004    0.0012
   01/01/2000 05:15:00      0.145     0.005    0.0012
   01/01/2000 05:20:00      0.147     0.005    0.0013
   01/01/2000 05:25:00      0.149     0.005    0.0013
   01/01/2000 05:30:00      0.151     0.005    0.0013
   01/01/2000 05:35:00      0.153     0.005    0.0013
   01/01/2000 05:40:00      0.153     0.005    0.0014
   01/01/2000 05:45:00      0.155     0.005    0.0014
   01/01/2000 05:50:00      0.157     0.005    0.0014
   01/01/2000 05:55:00      0.159     0.005    0.0014
   01/01/2000 06:00:00      0.161     0.005    0.0014
   01/01/2000 06:05:00      0.163     0.005    0.0015
   01/01/2000 06:10:00      0.163     0.005    0.0015
   01/01/2000 06:15:00      0.165     0.005    0.0015
   01/01/2000 06:20:00      0.167     0.005    0.0015
   01/01/2000 06:25:00      0.169     0.005    0.0015
   01/01/2000 06:30:00      0.171     0.005    0.0016
   01/01/2000 06:35:00      0.173     0.005    0.0016
   01/01/2000 06:40:00      0.173     0.005    0.0016
   01/01/2000 06:45:00      0.175     0.005    0.0016
   01/01/2000 06:50:00      0.177     0.006    0.0016
   01/01/2000 06:55:00      0.179     0.006    0.0017
   01/01/2000 07:00:00      0.181     0.006    0.0017
   01/01/2000 07:05:00      0.183     0.006    0.0017
   01/01/2000 07:10:00      0.183     0.006    0.0017
   01/01/2000 07:15:00      0.185     0.006    0.0017
   01/01/2000 07:20:00      0.187     0.006    0.0018
   01/01/2000 07:25:00      0.189     0.006    0.0018
   01/01/2000 07:30:00      0.191     0.006    0.0018
   01/01/2000 07:35:00      0.193     0.006    0.0018
   01/01/2000 07:40:00      0.193     0.006    0.0018
   01/01/2000 07:45:00      0.195     0.006    0.0019
   01/01/2000 07:50:00      0.197     0.006    0.0019
   01/01/2000 07:55:00      0.199     0.006    0.0019
   01/01/2000 08:00:00      0.201     0.006    0.0019
   01/01/2000 08:05:00      0.203     0.006    0.0019
   01/01/2000 08:10:00      0.203     0.006    0.0020
   01/01/2000 08:15:00      0.205     0.006    0.0020
   01/01/2000 08:20:00      0.207     0.006    0.0020
   01/01/2000 08:25:00      0.209     0.007    0.0020
   01/01/2000 08:30:00      0.211     0.007    0.0020
   01/01/2000 08:35:00      0.213     0.007    0.0021
   01/01/2000 08:40:00      0.213     0.007    0.0021
   01/01/2000 08:45:00      0.215     0.007    0.0021
   01/01/2000 08:50:00      0.217     0.007    0.0021
   01/01/2000 08:55:00      0.219     0.007    0.0021
   01/01/2000 09:00:00      0.225     0.007    0.0022
   01/01/2000 09:05:00      0.235     0.007    0.0022
   01/01/2000 09:10:00      0.235     0.007    0.0022
   01/01/2000 09:15:00      0.245     0.008    0.0022
   01/01/2000 09:20:00      0.255     0.008    0.0023
   01/01/2000 09:25:00      0.265     0.008    0.0023
   01/01/2000 09:30:00      0.275     0.009    0.0024
   01/01/2000 09:35:00      0.285     0.009    0.0024
   01/01/2000 09:40:00      0.285     0.009    0.0025
   01/01/2000 09:45:00      0.295     0.009    0.0025
   01/01/2000 09:50:00      0.305     0.010    0.0026
   01/01/2000 09:55:00      0.315     0.010    0.0027
   01/01/2000 10:00:00      0.320     0.010    0.0027
   01/01/2000 10:05:00      0.320     0.010    0.0028
   01/01/2000 10:10:00      0.320     0.010    0.0029
   01/01/2000 10:15:00      0.320     0.010    0.0029
   01/01/2000 10:20:00      0.320     0.010    0.0030
   01/01/2000 10:25:00      0.320     0.010    0.0030
   01/01/2000 10:30:00      0.328     0.010    0.0030
   01/01/2000 10:35:00      0.344     0.010    0.0031
   01/01/2000 10:40:00      0.344     0.011    0.0031
   01/01/2000 10:45:00      0.360     0.011    0.0032
   01/01/2000 10:50:00      0.376     0.012    0.0033
   01/01/2000 10:55:00      0.392     0.012    0.0034
   01/01/2000 11:00:00      0.412     0.013    0.0035
   01/01/2000 11:05:00      0.436     0.013    0.0036
   01/01/2000 11:10:00      0.436     0.014    0.0037
   01/01/2000 11:15:00      0.460     0.014    0.0038
   01/01/2000 11:20:00      0.484     0.015    0.0039
   01/01/2000 11:25:00      0.508     0.016    0.0041
   01/01/2000 11:30:00      0.540     0.017    0.0042
   01/01/2000 11:35:00      0.580     0.017    0.0044
   01/01/2000 11:40:00      0.580     0.018    0.0046
   01/01/2000 11:45:00      0.620     0.019    0.0048
   01/01/2000 11:50:00      0.660     0.021    0.0051
   01/01/2000 11:55:00      0.700     0.022    0.0053
   01/01/2000 12:00:00      0.768     0.024    0.0056
   01/01/2000 12:05:00      0.864     0.024    0.0059
   01/01/2000 12:10:00      0.864     0.026    0.0063
   01/01/2000 12:15:00      0.960     0.026    0.0068
   01/01/2000 12:20:00      1.056     0.026    0.0073
   01/01/2000 12:25:00      1.152     0.026    0.0079
   01/01/2000 12:30:00      2.384     0.026    0.0089
   01/01/2000 12:35:00      4.752     0.026    0.0115
   01/01/2000 12:40:00      4.752     0.026    0.0188
   01/01/2000 12:45:00      7.643     0.028    0.0313
   01/01/2000 12:50:00     13.707     0.029    0.0553
   01/01/2000 12:55:00      9.514     0.031    0.0772
   01/01/2000 13:00:00      1.896     0.030    0.0804
   01/01/2000 13:05:00      1.668     0.030    0.0615
   01/01/2000 13:10:00      1.668     0.027    0.0501
   01/01/2000 13:15:00      1.440     0.026    0.0416
   01/01/2000 13:20:00      1.212     0.026    0.0351
   01/01/2000 13:25:00      0.984     0.025    0.0299
   01/01/2000 13:30:00      0.844     0.025    0.0256
   01/01/2000 13:35:00      0.792     0.025    0.0222
   01/01/2000 13:40:00      0.792     0.025    0.0197
   01/01/2000 13:45:00      0.740     0.025    0.0175
   01/01/2000 13:50:00      0.688     0.024    0.0158
   01/01/2000 13:55:00      0.636     0.024    0.0143
   01/01/2000 14:00:00      0.596     0.024    0.0130
   01/01/2000 14:05:00      0.568     0.024    0.0120
   01/01/2000 14:10:00      0.568     0.024    0.0111
   01/01/2000 14:15:00      0.540     0.024    0.0103
   01/01/2000 14:20:00      0.512     0.024    0.0096
   01/01/2000 14:25:00      0.484     0.023    0.0090
   01/01/2000 14:30:00      0.460     0.016    0.0085
   01/01/2000 14:35:00      0.440     0.016    0.0080
   01/01/2000 14:40:00      0.440     0.014    0.0076
   01/01/2000 14:45:00      0.420     0.013    0.0072
   01/01/2000 14:50:00      0.400     0.012    0.0068
   01/01/2000 14:55:00      0.380     0.012    0.0065
   01/01/2000 15:00:00      0.367     0.011    0.0062
   01/01/2000 15:05:00      0.359     0.011    0.0059
   01/01/2000 15:10:00      0.359     0.011    0.0057
   01/01/2000 15:15:00      0.353     0.011    0.0054
   01/01/2000 15:20:00      0.345     0.011    0.0053
   01/01/2000 15:25:00      0.339     0.011    0.0051
   01/01/2000 15:30:00      0.331     0.010    0.0049
   01/01/2000 15:35:00      0.325     0.010    0.0048
   01/01/2000 15:40:00      0.325     0.010    0.0046
   01/01/2000 15:45:00      0.317     0.010    0.0045
   01/01/2000 15:50:00      0.311     0.010    0.0044
   01/01/2000 15:55:00      0.303     0.009    0.0043
   01/01/2000 16:00:00      0.297     0.009    0.0041
   01/01/2000 16:05:00      0.289     0.009    0.0040
   01/01/2000 16:10:00      0.289     0.009    0.0040
   01/01/2000 16:15:00      0.283     0.009    0.0039
   01/01/2000 16:20:00      0.275     0.009    0.0038
   01/01/2000 16:25:00      0.269     0.008    0.0037
   01/01/2000 16:30:00      0.261     0.008    0.0036
   01/01/2000 16:35:00      0.255     0.008    0.0035
   01/01/2000 16:40:00      0.255     0.008    0.0034
   01/01/2000 16:45:00      0.247     0.008    0.0034
   01/01/2000 16:50:00      0.241     0.008    0.0033
   01/01/2000 16:55:00      0.233     0.007    0.0032
   01/01/2000 17:00:00      0.229     0.007    0.0032
   01/01/2000 17:05:00      0.226     0.007    0.0031
   01/01/2000 17:10:00      0.226     0.007    0.0030
   01/01/2000 17:15:00      0.224     0.007    0.0030
   01/01/2000 17:20:00      0.221     0.007    0.0029
   01/01/2000 17:25:00      0.219     0.007    0.0029
   01/01/2000 17:30:00      0.216     0.007    0.0028
   01/01/2000 17:35:00      0.214     0.007    0.0028
   01/01/2000 17:40:00      0.214     0.007    0.0027
   01/01/2000 17:45:00      0.211     0.007    0.0027
   01/01/2000 17:50:00      0.209     0.007    0.0027
   01/01/2000 17:55:00      0.206     0.006    0.0026
   01/01/2000 18:00:00      0.204     0.006    0.0026
   01/01/2000 18:05:00      0.201     0.006    0.0025
   01/01/2000 18:10:00      0.201     0.006    0.0025
   01/01/2000 18:15:00      0.199     0.006    0.0025
   01/01/2000 18:20:00      0.196     0.006    0.0025
   01/01/2000 18:25:00      0.194     0.006    0.0024
   01/01/2000 18:30:00      0.191     0.006    0.0024
   01/01/2000 18:35:00      0.189     0.006    0.0024
   01/01/2000 18:40:00      0.189     0.006    0.0023
   01/01/2000 18:45:00      0.186     0.006    0.0023
   01/01/2000 18:50:00      0.184     0.006    0.0023
   01/01/2000 18:55:00      0.181     0.006    0.0023
   01/01/2000 19:00:00      0.179     0.006    0.0022
   01/01/2000 19:05:00      0.176     0.006    0.0022
   01/01/2000 19:10:00      0.176     0.005    0.0022
   01/01/2000 19:15:00      0.174     0.005    0.0022
   01/01/2000 19:20:00      0.171     0.005    0.0021
   01/01/2000 19:25:00      0.169     0.005    0.0021
   01/01/2000 19:30:00      0.166     0.005    0.0021
   01/01/2000 19:35:00      0.164     0.005    0.0021
   01/01/2000 19:40:00      0.164     0.005    0.0020
   01/01/2000 19:45:00      0.161     0.005    0.0020
   01/01/2000 19:50:00      0.159     0.005    0.0020
   01/01/2000 19:55:00      0.156     0.005    0.0020
   01/01/2000 20:00:00      0.154     0.005    0.0019
   01/01/2000 20:05:00      0.154     0.005    0.0019
   01/01/2000 20:10:00      0.151     0.005    0.0019
   01/01/2000 20:15:00      0.149     0.005    0.0019
   01/01/2000 20:20:00      0.146     0.005    0.0019
   01/01/2000 20:25:00      0.144     0.004    0.0018
   01/01/2000 20:30:00      0.141     0.004    0.0018
   01/01/2000 20:35:00      0.141     0.004    0.0018
   01/01/2000 20:40:00      0.139     0.004    0.0018
   01/01/2000 20:45:00      0.136     0.004    0.0017
   01/01/2000 20:50:00      0.134     0.004    0.0017
   01/01/2000 20:55:00      0.131     0.004    0.0017
   01/01/2000 21:00:00      0.130     0.004    0.0017
   01/01/2000 21:05:00      0.130     0.004    0.0017
   01/01/2000 21:10:00      0.129     0.004    0.0016
   01/01/2000 21:15:00      0.129     0.004    0.0016
   01/01/2000 21:20:00      0.128     0.004    0.0016
   01/01/2000 21:25:00      0.128     0.004    0.0016
   01/01/2000 21:30:00      0.127     0.004    0.0016
   01/01/2000 21:35:00      0.127     0.004    0.0016
   01/01/2000 21:40:00      0.127     0.004    0.0015
   01/01/2000 21:45:00      0.126     0.004    0.0015
   01/01/2000 21:50:00      0.126     0.004    0.0015
   01/01/2000 21:55:00      0.125     0.004    0.0015
   01/01/2000 22:00:00      0.125     0.004    0.0015
   01/01/2000 22:05:00      0.125     0.004    0.0015
   01/01/2000 22:10:00      0.124     0.004    0.0015
   01/01/2000 22:15:00      0.124     0.004    0.0015
   01/01/2000 22:20:00      0.123     0.004    0.0015
   01/01/2000 22:25:00      0.123     0.004    0.0014
   01/01/2000 22:30:00      0.122     0.004    0.0014
   01/01/2000 22:35:00      0.122     0.004    0.0014
   01/01/2000 22:40:00      0.122     0.004    0.0014
   01/01/2000 22:45:00      0.121     0.004    0.0014
   01/01/2000 22:50:00      0.121     0.004    0.0014
   01/01/2000 22:55:00      0.120     0.004    0.0014
   01/01/2000 23:00:00      0.120     0.004    0.0014
   01/01/2000 23:05:00      0.120     0.004    0.0014
   01/01/2000 23:10:00      0.119     0.004    0.0014
   01/01/2000 23:15:00      0.119     0.004    0.0014
   01/01/2000 23:20:00      0.118     0.004    0.0014
   01/01/2000 23:25:00      0.118     0.004    0.0014
   01/01/2000 23:30:00      0.117     0.004    0.0014
   01/01/2000 23:35:00      0.117     0.004    0.0013
   01/01/2000 23:40:00      0.117     0.004    0.0013
   01/01/2000 23:45:00      0.116     0.004    0.0013
   01/01/2000 23:50:00      0.116     0.004    0.0013
   01/01/2000 23:55:00      0.115     0.004    0.0013
   01/02/2000 00:00:00      0.115     0.004    0.0013
  
  
  <<< Subcatchment S2 >>>
  ---------------------------------------------------
  Date        Time        Precip.    Losses    Runoff
                            mm/hr     mm/hr       CMS
  ---------------------------------------------------
   01/01/2000 00:05:00      0.000     0.000    0.0000
   01/01/2000 00:10:00      0.000     0.000    0.0000
   01/01/2000 00:15:00      0.000     0.000    0.0000
   01/01/2000 00:20:00      0.000     0.000    0.0000
   01/01/2000 00:25:00      0.000     0.000    0.0000
   01/01/2000 00:30:00      0.000     0.000    0.0000
   01/01/2000 00:35:00      0.000     0.000    0.0000
   01/01/2000 00:40:00      0.000     0.000    0.0000
   01/01/2000 00:45:00      0.000     0.000    0.0000
   01/01/2000 00:50:00      0.000     0.000    0.0000
   01/01/2000 00:55:00      0.000     0.000    0.0000
   01/01/2000 01:00:00      0.101     0.000    0.0000
   01/01/2000 01:05:00      0.101     0.086    0.0000
   01/01/2000 01:10:00      0.101     0.086    0.0000
   01/01/2000 01:15:00      0.103     0.087    0.0000
   01/01/2000 01:20:00      0.103     0.087    0.0000
   01/01/2000 01:25:00      0.105     0.089    0.0000
   01/01/2000 01:30:00      0.105     0.089    0.0000
   01/01/2000 01:35:00      0.105     0.089    0.0000
   01/01/2000 01:40:00      0.107     0.091    0.0000
   01/01/2000 01:45:00      0.107     0.091    0.0000
   01/01/2000 01:50:00      0.109     0.093    0.0000
   01/01/2000 01:55:00      0.109     0.093    0.0000
   01/01/2000 02:00:00      0.111     0.094    0.0000
   01/01/2000 02:05:00      0.111     0.094    0.0000
   01/01/2000 02:10:00      0.111     0.094    0.0000
   01/01/2000 02:15:00      0.113     0.096    0.0000
   01/01/2000 02:20:00      0.113     0.096    0.0000
   01/01/2000 02:25:00      0.115     0.098    0.0000
   01/01/2000 02:30:00      0.115     0.098    0.0000
   01/01/2000 02:35:00      0.115     0.098    0.0000
   01/01/2000 02:40:00      0.117     0.099    0.0000
   01/01/2000 02:45:00      0.117     0.099    0.0000
   01/01/2000 02:50:00      0.119     0.101    0.0000
   01/01/2000 02:55:00      0.119     0.101    0.0000
   01/01/2000 03:00:00      0.121     0.101    0.0000
   01/01/2000 03:05:00      0.121     0.103    0.0000
   01/01/2000 03:10:00      0.121     0.103    0.0000
   01/01/2000 03:15:00      0.123     0.104    0.0000
   01/01/2000 03:20:00      0.123     0.104    0.0000
   01/01/2000 03:25:00      0.125     0.106    0.0000
   01/01/2000 03:30:00      0.125     0.106    0.0000
   01/01/2000 03:35:00      0.125     0.106    0.0000
   01/01/2000 03:40:00      0.127     0.108    0.0000
   01/01/2000 03:45:00      0.127     0.108    0.0000
   01/01/2000 03:50:00      0.129     0.110    0.0000
   01/01/2000 03:55:00      0.129     0.110    0.0000
   01/01/2000 04:00:00      0.131     0.110    0.0000
   01/01/2000 04:05:00      0.131     0.111    0.0000
   01/01/2000 04:10:00      0.131     0.111    0.0000
   01/01/2000 04:15:00      0.133     0.113    0.0000
   01/01/2000 04:20:00      0.133     0.113    0.0000
   01/01/2000 04:25:00      0.135     0.115    0.0000
   01/01/2000 04:30:00      0.135     0.115    0.0000
   01/01/2000 04:35:00      0.135     0.115    0.0000
   01/01/2000 04:40:00      0.137     0.116    0.0000
   01/01/2000 04:45:00      0.137     0.116    0.0000
   01/01/2000 04:50:00      0.139     0.118    0.0000
   01/01/2000 04:55:00      0.139     0.118    0.0000
   01/01/2000 05:00:00      0.141     0.118    0.0000
   01/01/2000 05:05:00      0.141     0.120    0.0000
   01/01/2000 05:10:00      0.143     0.121    0.0000
   01/01/2000 05:15:00      0.145     0.123    0.0000
   01/01/2000 05:20:00      0.147     0.125    0.0000
   01/01/2000 05:25:00      0.149     0.127    0.0000
   01/01/2000 05:30:00      0.151     0.127    0.0000
   01/01/2000 05:35:00      0.153     0.128    0.0000
   01/01/2000 05:40:00      0.153     0.130    0.0000
   01/01/2000 05:45:00      0.155     0.132    0.0000
   01/01/2000 05:50:00      0.157     0.133    0.0000
   01/01/2000 05:55:00      0.159     0.135    0.0000
   01/01/2000 06:00:00      0.161     0.137    0.0000
   01/01/2000 06:05:00      0.163     0.137    0.0000
   01/01/2000 06:10:00      0.163     0.138    0.0000
   01/01/2000 06:15:00      0.165     0.140    0.0000
   01/01/2000 06:20:00      0.167     0.142    0.0000
   01/01/2000 06:25:00      0.169     0.144    0.0000
   01/01/2000 06:30:00      0.171     0.145    0.0000
   01/01/2000 06:35:00      0.173     0.145    0.0003
   01/01/2000 06:40:00      0.173     0.147    0.0003
   01/01/2000 06:45:00      0.175     0.149    0.0003
   01/01/2000 06:50:00      0.177     0.150    0.0003
   01/01/2000 06:55:00      0.179     0.152    0.0003
   01/01/2000 07:00:00      0.181     0.154    0.0003
   01/01/2000 07:05:00      0.183     0.154    0.0003
   01/01/2000 07:10:00      0.183     0.155    0.0003
   01/01/2000 07:15:00      0.185     0.157    0.0003
   01/01/2000 07:20:00      0.187     0.159    0.0003
   01/01/2000 07:25:00      0.189     0.160    0.0003
   01/01/2000 07:30:00      0.191     0.162    0.0003
   01/01/2000 07:35:00      0.193     0.162    0.0003
   01/01/2000 07:40:00      0.193     0.164    0.0003
   01/01/2000 07:45:00      0.195     0.166    0.0003
   01/01/2000 07:50:00      0.197     0.167    0.0003
   01/01/2000 07:55:00      0.199     0.169    0.0003
   01/01/2000 08:00:00      0.201     0.171    0.0003
   01/01/2000 08:05:00      0.203     0.171    0.0003
   01/01/2000 08:10:00      0.203     0.172    0.0003
   01/01/2000 08:15:00      0.205     0.174    0.0003
   01/01/2000 08:20:00      0.207     0.176    0.0003
   01/01/2000 08:25:00      0.209     0.177    0.0003
   01/01/2000 08:30:00      0.211     0.179    0.0003
   01/01/2000 08:35:00      0.213     0.179    0.0004
   01/01/2000 08:40:00      0.213     0.181    0.0004
   01/01/2000 08:45:00      0.215     0.183    0.0004
   01/01/2000 08:50:00      0.217     0.184    0.0004
   01/01/2000 08:55:00      0.219     0.186    0.0004
   01/01/2000 09:00:00      0.225     0.188    0.0004
   01/01/2000 09:05:00      0.235     0.188    0.0004
   01/01/2000 09:10:00      0.235     0.187    0.0004
   01/01/2000 09:15:00      0.245     0.186    0.0004
   01/01/2000 09:20:00      0.255     0.184    0.0004
   01/01/2000 09:25:00      0.265     0.183    0.0004
   01/01/2000 09:30:00      0.275     0.182    0.0004
   01/01/2000 09:35:00      0.285     0.182    0.0005
   01/01/2000 09:40:00      0.285     0.181    0.0005
   01/01/2000 09:45:00      0.295     0.180    0.0005
   01/01/2000 09:50:00      0.305     0.179    0.0005
   01/01/2000 09:55:00      0.315     0.179    0.0005
   01/01/2000 10:00:00      0.320     0.178    0.0005
   01/01/2000 10:05:00      0.320     0.178    0.0005
   01/01/2000 10:10:00      0.320     0.177    0.0005
   01/01/2000 10:15:00      0.320     0.177    0.0005
   01/01/2000 10:20:00      0.320     0.176    0.0005
   01/01/2000 10:25:00      0.320     0.175    0.0006
   01/01/2000 10:30:00      0.328     0.175    0.0006
   01/01/2000 10:35:00      0.344     0.175    0.0007
   01/01/2000 10:40:00      0.344     0.174    0.0007
   01/01/2000 10:45:00      0.360     0.174    0.0008
   01/01/2000 10:50:00      0.376     0.173    0.0009
   01/01/2000 10:55:00      0.392     0.173    0.0011
   01/01/2000 11:00:00      0.412     0.172    0.0012
   01/01/2000 11:05:00      0.436     0.172    0.0014
   01/01/2000 11:10:00      0.436     0.172    0.0016
   01/01/2000 11:15:00      0.460     0.171    0.0018
   01/01/2000 11:20:00      0.484     0.171    0.0020
   01/01/2000 11:25:00      0.508     0.170    0.0022
   01/01/2000 11:30:00      0.540     0.170    0.0024
   01/01/2000 11:35:00      0.580     0.170    0.0027
   01/01/2000 11:40:00      0.580     0.170    0.0030
   01/01/2000 11:45:00      0.620     0.169    0.0033
   01/01/2000 11:50:00      0.660     0.169    0.0037
   01/01/2000 11:55:00      0.700     0.169    0.0040
   01/01/2000 12:00:00      0.768     0.169    0.0044
   01/01/2000 12:05:00      0.864     0.169    0.0049
   01/01/2000 12:10:00      0.864     0.168    0.0055
   01/01/2000 12:15:00      0.960     0.168    0.0062
   01/01/2000 12:20:00      1.056     0.168    0.0069
   01/01/2000 12:25:00      1.152     0.168    0.0077
   01/01/2000 12:30:00      2.384     0.168    0.0094
   01/01/2000 12:35:00      4.752     0.168    0.0142
   01/01/2000 12:40:00      4.752     0.170    0.0269
   01/01/2000 12:45:00      7.643     0.175    0.0467
   01/01/2000 12:50:00     13.707     0.182    0.0827
   01/01/2000 12:55:00      9.514     0.194    0.1079
   01/01/2000 13:00:00      1.896     0.193    0.0952
   01/01/2000 13:05:00      1.668     0.193    0.0536
   01/01/2000 13:10:00      1.668     0.182    0.0390
   01/01/2000 13:15:00      1.440     0.176    0.0299
   01/01/2000 13:20:00      1.212     0.172    0.0238
   01/01/2000 13:25:00      0.984     0.169    0.0193
   01/01/2000 13:30:00      0.844     0.167    0.0160
   01/01/2000 13:35:00      0.792     0.167    0.0134
   01/01/2000 13:40:00      0.792     0.165    0.0117
   01/01/2000 13:45:00      0.740     0.164    0.0104
   01/01/2000 13:50:00      0.688     0.162    0.0093
   01/01/2000 13:55:00      0.636     0.161    0.0084
   01/01/2000 14:00:00      0.596     0.160    0.0076
   01/01/2000 14:05:00      0.568     0.160    0.0070
   01/01/2000 14:10:00      0.568     0.159    0.0064
   01/01/2000 14:15:00      0.540     0.159    0.0060
   01/01/2000 14:20:00      0.512     0.158    0.0056
   01/01/2000 14:25:00      0.484     0.157    0.0052
   01/01/2000 14:30:00      0.460     0.157    0.0049
   01/01/2000 14:35:00      0.440     0.157    0.0046
   01/01/2000 14:40:00      0.440     0.156    0.0043
   01/01/2000 14:45:00      0.420     0.155    0.0041
   01/01/2000 14:50:00      0.400     0.155    0.0038
   01/01/2000 14:55:00      0.380     0.154    0.0036
   01/01/2000 15:00:00      0.367     0.154    0.0034
   01/01/2000 15:05:00      0.359     0.154    0.0032
   01/01/2000 15:10:00      0.359     0.153    0.0031
   01/01/2000 15:15:00      0.353     0.153    0.0029
   01/01/2000 15:20:00      0.345     0.152    0.0028
   01/01/2000 15:25:00      0.339     0.152    0.0027
   01/01/2000 15:30:00      0.331     0.152    0.0026
   01/01/2000 15:35:00      0.325     0.152    0.0025
   01/01/2000 15:40:00      0.325     0.151    0.0024
   01/01/2000 15:45:00      0.317     0.151    0.0023
   01/01/2000 15:50:00      0.311     0.151    0.0023
   01/01/2000 15:55:00      0.303     0.150    0.0022
   01/01/2000 16:00:00      0.297     0.150    0.0021
   01/01/2000 16:05:00      0.289     0.150    0.0020
   01/01/2000 16:10:00      0.289     0.149    0.0020
   01/01/2000 16:15:00      0.283     0.149    0.0019
   01/01/2000 16:20:00      0.275     0.149    0.0018
   01/01/2000 16:25:00      0.269     0.148    0.0018
   01/01/2000 16:30:00      0.261     0.148    0.0017
   01/01/2000 16:35:00      0.255     0.148    0.0016
   01/01/2000 16:40:00      0.255     0.148    0.0016
   01/01/2000 16:45:00      0.247     0.148    0.0015
   01/01/2000 16:50:00      0.241     0.147    0.0015
   01/01/2000 16:55:00      0.233     0.147    0.0014
   01/01/2000 17:00:00      0.229     0.147    0.0013
   01/01/2000 17:05:00      0.226     0.147    0.0013
   01/01/2000 17:10:00      0.226     0.146    0.0012
   01/01/2000 17:15:00      0.224     0.146    0.0012
   01/01/2000 17:20:00      0.221     0.146    0.0012
   01/01/2000 17:25:00      0.219     0.146    0.0011
   01/01/2000 17:30:00      0.216     0.145    0.0011
   01/01/2000 17:35:00      0.214     0.145    0.0011
   01/01/2000 17:40:00      0.214     0.145    0.0010
   01/01/2000 17:45:00      0.211     0.145    0.0010
   01/01/2000 17:50:00      0.209     0.145    0.0010
   01/01/2000 17:55:00      0.206     0.144    0.0009
   01/01/2000 18:00:00      0.204     0.144    0.0009
   01/01/2000 18:05:00      0.201     0.144    0.0009
   01/01/2000 18:10:00      0.201     0.144    0.0009
   01/01/2000 18:15:00      0.199     0.144    0.0008
   01/01/2000 18:20:00      0.196     0.143    0.0008
   01/01/2000 18:25:00      0.194     0.143    0.0008
   01/01/2000 18:30:00      0.191     0.143    0.0008
   01/01/2000 18:35:00      0.189     0.143    0.0008
   01/01/2000 18:40:00      0.189     0.143    0.0007
   01/01/2000 18:45:00      0.186     0.142    0.0007
   01/01/2000 18:50:00      0.184     0.142    0.0007
   01/01/2000 18:55:00      0.181     0.142    0.0007
   01/01/2000 19:00:00      0.179     0.142    0.0006
   01/01/2000 19:05:00      0.176     0.142    0.0006
   01/01/2000 19:10:00      0.176     0.142    0.0006
   01/01/2000 19:15:00      0.174     0.141    0.0006
   01/01/2000 19:20:00      0.171     0.141    0.0006
   01/01/2000 19:25:00      0.169     0.141    0.0005
   01/01/2000 19:30:00      0.166     0.141    0.0005
   01/01/2000 19:35:00      0.164     0.141    0.0005
   01/01/2000 19:40:00      0.164     0.141    0.0005
   01/01/2000 19:45:00      0.161     0.140    0.0005
   01/01/2000 19:50:00      0.159     0.140    0.0005
   01/01/2000 19:55:00      0.156     0.140    0.0004
   01/01/2000 20:00:00      0.154     0.140    0.0004
   01/01/2000 20:05:00      0.154     0.140    0.0004
   01/01/2000 20:10:00      0.151     0.140    0.0004
   01/01/2000 20:15:00      0.149     0.140    0.0004
   01/01/2000 20:20:00      0.146     0.139    0.0004
   01/01/2000 20:25:00      0.144     0.139    0.0003
   01/01/2000 20:30:00      0.141     0.139    0.0003
   01/01/2000 20:35:00      0.141     0.139    0.0003
   01/01/2000 20:40:00      0.139     0.139    0.0003
   01/01/2000 20:45:00      0.136     0.139    0.0000
   01/01/2000 20:50:00      0.134     0.138    0.0000
   01/01/2000 20:55:00      0.131     0.138    0.0000
   01/01/2000 21:00:00      0.130     0.138    0.0000
   01/01/2000 21:05:00      0.130     0.138    0.0000
   01/01/2000 21:10:00      0.129     0.138    0.0000
   01/01/2000 21:15:00      0.129     0.138    0.0000
   01/01/2000 21:20:00      0.128     0.138    0.0000
   01/01/2000 21:25:00      0.128     0.137    0.0000
   01/01/2000 21:30:00      0.127     0.137    0.0000
   01/01/2000 21:35:00      0.127     0.137    0.0000
   01/01/2000 21:40:00      0.127     0.137    0.0000
   01/01/2000 21:45:00      0.126     0.137    0.0000
   01/01/2000 21:50:00      0.126     0.137    0.0000
   01/01/2000 21:55:00      0.125     0.137    0.0000
   01/01/2000 22:00:00      0.125     0.137    0.0000
   01/01/2000 22:05:00      0.125     0.136    0.0000
   01/01/2000 22:10:00      0.124     0.136    0.0000
   01/01/2000 22:15:00      0.124     0.136    0.0000
   01/01/2000 22:20:00      0.123     0.136    0.0000
   01/01/2000 22:25:00      0.123     0.136    0.0000
   01/01/2000 22:30:00      0.122     0.136    0.0000
   01/01/2000 22:35:00      0.122     0.136    0.0000
   01/01/2000 22:40:00      0.122     0.136    0.0000
   01/01/2000 22:45:00      0.121     0.135    0.0000
   01/01/2000 22:50:00      0.121     0.135    0.0000
   01/01/2000 22:55:00      0.120     0.135    0.0000
   01/01/2000 23:00:00      0.120     0.135    0.0000
   01/01/2000 23:05:00      0.120     0.135    0.0000
   01/01/2000 23:10:00      0.119     0.135    0.0000
   01/01/2000 23:15:00      0.119     0.135    0.0000
   01/01/2000 23:20:00      0.118     0.134    0.0000
   01/01/2000 23:25:00      0.118     0.134    0.0000
   01/01/2000 23:30:00      0.117     0.134    0.0000
   01/01/2000 23:35:00      0.117     0.134    0.0000
   01/01/2000 23:40:00      0.117     0.122    0.0000
   01/01/2000 23:45:00      0.116     0.099    0.0000
   01/01/2000 23:50:00      0.116     0.099    0.0000
   01/01/2000 23:55:00      0.115     0.098    0.0000
   01/02/2000 00:00:00      0.115     0.098    0.0000
  
  
  <<< Subcatchment S3 >>>
  ---------------------------------------------------
  Date        Time        Precip.    Losses    Runoff
                            mm/hr     mm/hr       CMS
  ---------------------------------------------------
   01/01/2000 00:05:00      0.000     0.000    0.0000
   01/01/2000 00:10:00      0.000     0.000    0.0000
   01/01/2000 00:15:00      0.000     0.000    0.0000
   01/01/2000 00:20:00      0.000     0.000    0.0000
   01/01/2000 00:25:00      0.000     0.000    0.0000
   01/01/2000 00:30:00      0.000     0.000    0.0000
   01/01/2000 00:35:00      0.000     0.000    0.0000
   01/01/2000 00:40:00      0.000     0.000    0.0000
   01/01/2000 00:45:00      0.000     0.000    0.0000
   01/01/2000 00:50:00      0.000     0.000    0.0000
   01/01/2000 00:55:00      0.000     0.000    0.0000
   01/01/2000 01:00:00      0.101     0.000    0.0000
   01/01/2000 01:05:00      0.101     0.009    0.0000
   01/01/2000 01:10:00      0.101     0.009    0.0000
   01/01/2000 01:15:00      0.103     0.009    0.0000
   01/01/2000 01:20:00      0.103     0.009    0.0000
   01/01/2000 01:25:00      0.105     0.009    0.0000
   01/01/2000 01:30:00      0.105     0.009    0.0000
   01/01/2000 01:35:00      0.105     0.009    0.0000
   01/01/2000 01:40:00      0.107     0.009    0.0000
   01/01/2000 01:45:00      0.107     0.009    0.0000
   01/01/2000 01:50:00      0.109     0.009    0.0000
   01/01/2000 01:55:00      0.109     0.009    0.0000
   01/01/2000 02:00:00      0.111     0.009    0.0000
   01/01/2000 02:05:00      0.111     0.009    0.0000
   01/01/2000 02:10:00      0.111     0.009    0.0000
   01/01/2000 02:15:00      0.113     0.010    0.0000
   01/01/2000 02:20:00      0.113     0.010    0.0000
   01/01/2000 02:25:00      0.115     0.010    0.0000
   01/01/2000 02:30:00      0.115     0.010    0.0000
   01/01/2000 02:35:00      0.115     0.010    0.0000
   01/01/2000 02:40:00      0.117     0.010    0.0000
   01/01/2000 02:45:00      0.117     0.010    0.0000
   01/01/2000 02:50:00      0.119     0.010    0.0000
   01/01/2000 02:55:00      0.119     0.010    0.0000
   01/01/2000 03:00:00      0.121     0.010    0.0003
   01/01/2000 03:05:00      0.121     0.010    0.0003
   01/01/2000 03:10:00      0.121     0.010    0.0003
   01/01/2000 03:15:00      0.123     0.010    0.0003
   01/01/2000 03:20:00      0.123     0.010    0.0004
   01/01/2000 03:25:00      0.125     0.011    0.0004
   01/01/2000 03:30:00      0.125     0.011    0.0004
   01/01/2000 03:35:00      0.125     0.011    0.0004
   01/01/2000 03:40:00      0.127     0.011    0.0004
   01/01/2000 03:45:00      0.127     0.011    0.0005
   01/01/2000 03:50:00      0.129     0.011    0.0005
   01/01/2000 03:55:00      0.129     0.011    0.0005
   01/01/2000 04:00:00      0.131     0.011    0.0005
   01/01/2000 04:05:00      0.131     0.011    0.0005
   01/01/2000 04:10:00      0.131     0.011    0.0005
   01/01/2000 04:15:00      0.133     0.011    0.0006
   01/01/2000 04:20:00      0.133     0.011    0.0006
   01/01/2000 04:25:00      0.135     0.011    0.0006
   01/01/2000 04:30:00      0.135     0.011    0.0006
   01/01/2000 04:35:00      0.135     0.011    0.0006
   01/01/2000 04:40:00      0.137     0.012    0.0006
   01/01/2000 04:45:00      0.137     0.012    0.0007
   01/01/2000 04:50:00      0.139     0.012    0.0007
   01/01/2000 04:55:00      0.139     0.012    0.0007
   01/01/2000 05:00:00      0.141     0.012    0.0007
   01/01/2000 05:05:00      0.141     0.012    0.0007
   01/01/2000 05:10:00      0.143     0.012    0.0007
   01/01/2000 05:15:00      0.145     0.012    0.0007
   01/01/2000 05:20:00      0.147     0.012    0.0008
   01/01/2000 05:25:00      0.149     0.013    0.0008
   01/01/2000 05:30:00      0.151     0.013    0.0008
   01/01/2000 05:35:00      0.153     0.013    0.0008
   01/01/2000 05:40:00      0.153     0.013    0.0008
   01/01/2000 05:45:00      0.155     0.013    0.0008
   01/01/2000 05:50:00      0.157     0.013    0.0008
   01/01/2000 05:55:00      0.159     0.013    0.0009
   01/01/2000 06:00:00      0.161     0.014    0.0009
   01/01/2000 06:05:00      0.163     0.014    0.0009
   01/01/2000 06:10:00      0.163     0.014    0.0009
   01/01/2000 06:15:00      0.165     0.014    0.0009
   01/01/2000 06:20:00      0.167     0.014    0.0009
   01/01/2000 06:25:00      0.169     0.014    0.0009
   01/01/2000 06:30:00      0.171     0.014    0.0009
   01/01/2000 06:35:00      0.173     0.014    0.0010
   01/01/2000 06:40:00      0.173     0.015    0.0010
   01/01/2000 06:45:00      0.175     0.015    0.0010
   01/01/2000 06:50:00      0.177     0.015    0.0010
   01/01/2000 06:55:00      0.179     0.015    0.0010
   01/01/2000 07:00:00      0.181     0.015    0.0010
   01/01/2000 07:05:00      0.183     0.015    0.0010
   01/01/2000 07:10:00      0.183     0.015    0.0011
   01/01/2000 07:15:00      0.185     0.016    0.0011
   01/01/2000 07:20:00      0.187     0.016    0.0011
   01/01/2000 07:25:00      0.189     0.016    0.0011
   01/01/2000 07:30:00      0.191     0.016    0.0011
   01/01/2000 07:35:00      0.193     0.016    0.0011
   01/01/2000 07:40:00      0.193     0.016    0.0011
   01/01/2000 07:45:00      0.195     0.016    0.0012
   01/01/2000 07:50:00      0.197     0.017    0.0012
   01/01/2000 07:55:00      0.199     0.017    0.0012
   01/01/2000 08:00:00      0.201     0.017    0.0012
   01/01/2000 08:05:00      0.203     0.017    0.0012
   01/01/2000 08:10:00      0.203     0.017    0.0012
   01/01/2000 08:15:00      0.205     0.017    0.0012
   01/01/2000 08:20:00      0.207     0.018    0.0012
   01/01/2000 08:25:00      0.209     0.018    0.0013
   01/01/2000 08:30:00      0.211     0.018    0.0013
   01/01/2000 08:35:00      0.213     0.018    0.0013
   01/01/2000 08:40:00      0.213     0.018    0.0013
   01/01/2000 08:45:00      0.215     0.018    0.0013
   01/01/2000 08:50:00      0.217     0.018    0.0013
   01/01/2000 08:55:00      0.219     0.019    0.0013
   01/01/2000 09:00:00      0.225     0.019    0.0014
   01/01/2000 09:05:00      0.235     0.019    0.0014
   01/01/2000 09:10:00      0.235     0.020    0.0014
   01/01/2000 09:15:00      0.245     0.021    0.0014
   01/01/2000 09:20:00      0.255     0.022    0.0014
   01/01/2000 09:25:00      0.265     0.022    0.0015
   01/01/2000 09:30:00      0.275     0.023    0.0015
   01/01/2000 09:35:00      0.285     0.023    0.0015
   01/01/2000 09:40:00      0.285     0.024    0.0015
   01/01/2000 09:45:00      0.295     0.025    0.0016
   01/01/2000 09:50:00      0.305     0.026    0.0016
   01/01/2000 09:55:00      0.315     0.027    0.0017
   01/01/2000 10:00:00      0.320     0.027    0.0017
   01/01/2000 10:05:00      0.320     0.027    0.0017
   01/01/2000 10:10:00      0.320     0.027    0.0018
   01/01/2000 10:15:00      0.320     0.027    0.0018
   01/01/2000 10:20:00      0.320     0.027    0.0018
   01/01/2000 10:25:00      0.320     0.027    0.0019
   01/01/2000 10:30:00      0.328     0.028    0.0019
   01/01/2000 10:35:00      0.344     0.028    0.0019
   01/01/2000 10:40:00      0.344     0.029    0.0020
   01/01/2000 10:45:00      0.360     0.030    0.0020
   01/01/2000 10:50:00      0.376     0.030    0.0020
   01/01/2000 10:55:00      0.392     0.029    0.0021
   01/01/2000 11:00:00      0.412     0.029    0.0021
   01/01/2000 11:05:00      0.436     0.029    0.0022
   01/01/2000 11:10:00      0.436     0.029    0.0023
   01/01/2000 11:15:00      0.460     0.029    0.0023
   01/01/2000 11:20:00      0.484     0.029    0.0024
   01/01/2000 11:25:00      0.508     0.029    0.0025
   01/01/2000 11:30:00      0.540     0.029    0.0026
   01/01/2000 11:35:00      0.580     0.029    0.0027
   01/01/2000 11:40:00      0.580     0.028    0.0028
   01/01/2000 11:45:00      0.620     0.028    0.0029
   01/01/2000 11:50:00      0.660     0.028    0.0031
   01/01/2000 11:55:00      0.700     0.028    0.0033
   01/01/2000 12:00:00      0.768     0.028    0.0034
   01/01/2000 12:05:00      0.864     0.028    0.0036
   01/01/2000 12:10:00      0.864     0.028    0.0039
   01/01/2000 12:15:00      0.960     0.028    0.0042
   01/01/2000 12:20:00      1.056     0.028    0.0048
   01/01/2000 12:25:00      1.152     0.029    0.0060
   01/01/2000 12:30:00      2.384     0.029    0.0078
   01/01/2000 12:35:00      4.752     0.029    0.0098
   01/01/2000 12:40:00      4.752     0.029    0.0150
   01/01/2000 12:45:00      7.643     0.030    0.0243
   01/01/2000 12:50:00     13.707     0.032    0.0423
   01/01/2000 12:55:00      9.514     0.035    0.0604
   01/01/2000 13:00:00      1.896     0.036    0.0665
   01/01/2000 13:05:00      1.668     0.036    0.0559
   01/01/2000 13:10:00      1.668     0.034    0.0482
   01/01/2000 13:15:00      1.440     0.032    0.0419
   01/01/2000 13:20:00      1.212     0.031    0.0368
   01/01/2000 13:25:00      0.984     0.030    0.0324
   01/01/2000 13:30:00      0.844     0.029    0.0286
   01/01/2000 13:35:00      0.792     0.029    0.0254
   01/01/2000 13:40:00      0.792     0.029    0.0228
   01/01/2000 13:45:00      0.740     0.028    0.0206
   01/01/2000 13:50:00      0.688     0.028    0.0188
   01/01/2000 13:55:00      0.636     0.028    0.0171
   01/01/2000 14:00:00      0.596     0.027    0.0157
   01/01/2000 14:05:00      0.568     0.027    0.0145
   01/01/2000 14:10:00      0.568     0.027    0.0134
   01/01/2000 14:15:00      0.540     0.027    0.0125
   01/01/2000 14:20:00      0.512     0.027    0.0117
   01/01/2000 14:25:00      0.484     0.027    0.0109
   01/01/2000 14:30:00      0.460     0.026    0.0103
   01/01/2000 14:35:00      0.440     0.026    0.0096
   01/01/2000 14:40:00      0.440     0.026    0.0091
   01/01/2000 14:45:00      0.420     0.026    0.0086
   01/01/2000 14:50:00      0.400     0.026    0.0082
   01/01/2000 14:55:00      0.380     0.026    0.0077
   01/01/2000 15:00:00      0.367     0.026    0.0074
   01/01/2000 15:05:00      0.359     0.026    0.0070
   01/01/2000 15:10:00      0.359     0.026    0.0067
   01/01/2000 15:15:00      0.353     0.025    0.0064
   01/01/2000 15:20:00      0.345     0.025    0.0062
   01/01/2000 15:25:00      0.339     0.025    0.0059
   01/01/2000 15:30:00      0.331     0.025    0.0057
   01/01/2000 15:35:00      0.325     0.025    0.0055
   01/01/2000 15:40:00      0.325     0.025    0.0053
   01/01/2000 15:45:00      0.317     0.025    0.0051
   01/01/2000 15:50:00      0.311     0.025    0.0050
   01/01/2000 15:55:00      0.303     0.025    0.0048
   01/01/2000 16:00:00      0.297     0.025    0.0047
   01/01/2000 16:05:00      0.289     0.025    0.0045
   01/01/2000 16:10:00      0.289     0.025    0.0044
   01/01/2000 16:15:00      0.283     0.025    0.0043
   01/01/2000 16:20:00      0.275     0.024    0.0042
   01/01/2000 16:25:00      0.269     0.024    0.0041
   01/01/2000 16:30:00      0.261     0.024    0.0039
   01/01/2000 16:35:00      0.255     0.024    0.0038
   01/01/2000 16:40:00      0.255     0.024    0.0038
   01/01/2000 16:45:00      0.247     0.024    0.0037
   01/01/2000 16:50:00      0.241     0.024    0.0036
   01/01/2000 16:55:00      0.233     0.024    0.0035
   01/01/2000 17:00:00      0.229     0.024    0.0034
   01/01/2000 17:05:00      0.226     0.024    0.0033
   01/01/2000 17:10:00      0.226     0.024    0.0032
   01/01/2000 17:15:00      0.224     0.024    0.0032
   01/01/2000 17:20:00      0.221     0.024    0.0031
   01/01/2000 17:25:00      0.219     0.024    0.0030
   01/01/2000 17:30:00      0.216     0.024    0.0030
   01/01/2000 17:35:00      0.214     0.024    0.0029
   01/01/2000 17:40:00      0.214     0.024    0.0029
   01/01/2000 17:45:00      0.211     0.024    0.0028
   01/01/2000 17:50:00      0.209     0.024    0.0028
   01/01/2000 17:55:00      0.206     0.023    0.0027
   01/01/2000 18:00:00      0.204     0.023    0.0027
   01/01/2000 18:05:00      0.201     0.023    0.0026
   01/01/2000 18:10:00      0.201     0.023    0.0026
   01/01/2000 18:15:00      0.199     0.023    0.0026
   01/01/2000 18:20:00      0.196     0.023    0.0025
   01/01/2000 18:25:00      0.194     0.023    0.0025
   01/01/2000 18:30:00      0.191     0.019    0.0025
   01/01/2000 18:35:00      0.189     0.019    0.0024
   01/01/2000 18:40:00      0.189     0.016    0.0024
   01/01/2000 18:45:00      0.186     0.016    0.0024
   01/01/2000 18:50:00      0.184     0.016    0.0023
   01/01/2000 18:55:00      0.181     0.015    0.0023
   01/01/2000 19:00:00      0.179     0.015    0.0023
   01/01/2000 19:05:00      0.176     0.015    0.0022
   01/01/2000 19:10:00      0.176     0.015    0.0022
   01/01/2000 19:15:00      0.174     0.015    0.0022
   01/01/2000 19:20:00      0.171     0.014    0.0022
   01/01/2000 19:25:00      0.169     0.014    0.0021
   01/01/2000 19:30:00      0.166     0.014    0.0021
   01/01/2000 19:35:00      0.164     0.014    0.0021
   01/01/2000 19:40:00      0.164     0.014    0.0021
   01/01/2000 19:45:00      0.161     0.014    0.0020
   01/01/2000 19:50:00      0.159     0.013    0.0020
   01/01/2000 19:55:00      0.156     0.013    0.0020
   01/01/2000 20:00:00      0.154     0.013    0.0020
   01/01/2000 20:05:00      0.154     0.013    0.0019
   01/01/2000 20:10:00      0.151     0.013    0.0019
   01/01/2000 20:15:00      0.149     0.013    0.0019
   01/01/2000 20:20:00      0.146     0.012    0.0019
   01/01/2000 20:25:00      0.144     0.012    0.0018
   01/01/2000 20:30:00      0.141     0.012    0.0018
   01/01/2000 20:35:00      0.141     0.012    0.0018
   01/01/2000 20:40:00      0.139     0.012    0.0018
   01/01/2000 20:45:00      0.136     0.011    0.0018
   01/01/2000 20:50:00      0.134     0.011    0.0017
   01/01/2000 20:55:00      0.131     0.011    0.0017
   01/01/2000 21:00:00      0.130     0.011    0.0017
   01/01/2000 21:05:00      0.130     0.011    0.0017
   01/01/2000 21:10:00      0.129     0.011    0.0017
   01/01/2000 21:15:00      0.129     0.011    0.0016
   01/01/2000 21:20:00      0.128     0.011    0.0016
   01/01/2000 21:25:00      0.128     0.011    0.0016
   01/01/2000 21:30:00      0.127     0.011    0.0016
   01/01/2000 21:35:00      0.127     0.011    0.0016
   01/01/2000 21:40:00      0.127     0.011    0.0015
   01/01/2000 21:45:00      0.126     0.011    0.0015
   01/01/2000 21:50:00      0.126     0.011    0.0015
   01/01/2000 21:55:00      0.125     0.011    0.0015
   01/01/2000 22:00:00      0.125     0.011    0.0015
   01/01/2000 22:05:00      0.125     0.011    0.0015
   01/01/2000 22:10:00      0.124     0.010    0.0015
   01/01/2000 22:15:00      0.124     0.010    0.0015
   01/01/2000 22:20:00      0.123     0.010    0.0015
   01/01/2000 22:25:00      0.123     0.010    0.0014
   01/01/2000 22:30:00      0.122     0.010    0.0014
   01/01/2000 22:35:00      0.122     0.010    0.0014
   01/01/2000 22:40:00      0.122     0.010    0.0014
   01/01/2000 22:45:00      0.121     0.010    0.0014
   01/01/2000 22:50:00      0.121     0.010    0.0014
   01/01/2000 22:55:00      0.120     0.010    0.0014
   01/01/2000 23:00:00      0.120     0.010    0.0014
   01/01/2000 23:05:00      0.120     0.010    0.0014
   01/01/2000 23:10:00      0.119     0.010    0.0014
   01/01/2000 23:15:00      0.119     0.010    0.0014
   01/01/2000 23:20:00      0.118     0.010    0.0013
   01/01/2000 23:25:00      0.118     0.010    0.0013
   01/01/2000 23:30:00      0.117     0.010    0.0013
   01/01/2000 23:35:00      0.117     0.010    0.0013
   01/01/2000 23:40:00      0.117     0.010    0.0013
   01/01/2000 23:45:00      0.116     0.010    0.0013
   01/01/2000 23:50:00      0.116     0.010    0.0013
   01/01/2000 23:55:00      0.115     0.010    0.0013
   01/02/2000 00:00:00      0.115     0.010    0.0013
  
  
  ************
  Node Results
  ************
  
  <<< Node J3 >>>
  ----------------------------------------------------------------
                           Inflow  Flooding     Depth      Head
  Date        Time            CMS       CMS    meters    meters
  ----------------------------------------------------------------
   01/01/2000 00:05:00      0.000     0.000     0.000    93.000
   01/01/2000 00:10:00      0.000     0.000     0.000    93.000
   01/01/2000 00:15:00      0.000     0.000     0.000    93.000
   01/01/2000 00:20:00      0.000     0.000     0.000    93.000
   01/01/2000 00:25:00      0.000     0.000     0.000    93.000
   01/01/2000 00:30:00      0.000     0.000     0.000    93.000
   01/01/2000 00:35:00      0.000     0.000     0.000    93.000
   01/01/2000 00:40:00      0.000     0.000     0.000    93.000
   01/01/2000 00:45:00      0.000     0.000     0.000    93.000
   01/01/2000 00:50:00      0.000     0.000     0.000    93.000
   01/01/2000 00:55:00      0.000     0.000     0.000    93.000
   01/01/2000 01:00:00      0.000     0.000     0.000    93.000
   01/01/2000 01:05:00      0.000     0.000     0.000    93.000
   01/01/2000 01:10:00      0.000     0.000     0.001    93.001
   01/01/2000 01:15:00      0.000     0.000     0.001    93.001
   01/01/2000 01:20:00      0.000     0.000     0.001    93.001
   01/01/2000 01:25:00      0.000     0.000     0.002    93.002
   01/01/2000 01:30:00      0.000     0.000     0.002    93.002
   01/01/2000 01:35:00      0.000     0.000     0.003    93.003
   01/01/2000 01:40:00      0.000     0.000     0.003    93.003
   01/01/2000 01:45:00      0.000     0.000     0.003    93.003
   01/01/2000 01:50:00      0.000     0.000     0.004    93.004
   01/01/2000 01:55:00      0.000     0.000     0.004    93.004
   01/01/2000 02:00:00      0.000     0.000     0.005    93.005
   01/01/2000 02:05:00      0.000     0.000     0.005    93.005
   01/01/2000 02:10:00      0.000     0.000     0.005    93.005
   01/01/2000 02:15:00      0.000     0.000     0.006    93.006
   01/01/2000 02:20:00      0.000     0.000     0.006    93.006
   01/01/2000 02:25:00      0.000     0.000     0.006    93.006
   01/01/2000 02:30:00      0.000     0.000     0.007    93.007
   01/01/2000 02:35:00      0.000     0.000     0.007    93.007
   01/01/2000 02:40:00      0.000     0.000     0.007    93.007
   01/01/2000 02:45:00      0.000     0.000     0.007    93.007
   01/01/2000 02:50:00      0.000     0.000     0.008    93.008
   01/01/2000 02:55:00      0.000     0.000     0.008    93.008
   01/01/2000 03:00:00      0.000     0.000     0.008    93.008
   01/01/2000 03:05:00      0.000     0.000     0.008    93.008
   01/01/2000 03:10:00      0.000     0.000     0.009    93.009
   01/01/2000 03:15:00      0.000     0.000     0.009    93.009
   01/01/2000 03:20:00      0.000     0.000     0.009    93.009
   01/01/2000 03:25:00      0.000     0.000     0.009    93.009
   01/01/2000 03:30:00      0.000     0.000     0.010    93.010
   01/01/2000 03:35:00      0.000     0.000     0.010    93.010
   01/01/2000 03:40:00      0.000     0.000     0.010    93.010
   01/01/2000 03:45:00      0.000     0.000     0.010    93.010
   01/01/2000 03:50:00      0.000     0.000     0.010    93.010
   01/01/2000 03:55:00      0.000     0.000     0.011    93.011
   01/01/2000 04:00:00      0.001     0.000     0.011    93.011
   01/01/2000 04:05:00      0.001     0.000     0.011    93.011
   01/01/2000 04:10:00      0.001     0.000     0.011    93.011
   01/01/2000 04:15:00      0.001     0.000     0.011    93.011
   01/01/2000 04:20:00      0.001     0.000     0.011    93.011
   01/01/2000 04:25:00      0.001     0.000     0.012    93.012
   01/01/2000 04:30:00      0.001     0.000     0.012    93.012
   01/01/2000 04:35:00      0.001     0.000     0.012    93.012
   01/01/2000 04:40:00      0.001     0.000     0.012    93.012
   01/01/2000 04:45:00      0.001     0.000     0.012    93.012
   01/01/2000 04:50:00      0.001     0.000     0.012    93.012
   01/01/2000 04:55:00      0.001     0.000     0.012    93.012
   01/01/2000 05:00:00      0.001     0.000     0.012    93.012
   01/01/2000 05:05:00      0.001     0.000     0.013    93.013
   01/01/2000 05:10:00      0.001     0.000     0.013    93.013
   01/01/2000 05:15:00      0.001     0.000     0.013    93.013
   01/01/2000 05:20:00      0.001     0.000     0.013    93.013
   01/01/2000 05:25:00      0.001     0.000     0.013    93.013
   01/01/2000 05:30:00      0.001     0.000     0.013    93.013
   01/01/2000 05:35:00      0.001     0.000     0.013    93.013
   01/01/2000 05:40:00      0.001     0.000     0.013    93.013
   01/01/2000 05:45:00      0.001     0.000     0.013    93.013
   01/01/2000 05:50:00      0.001     0.000     0.014    93.014
   01/01/2000 05:55:00      0.001     0.000     0.014    93.014
   01/01/2000 06:00:00      0.001     0.000     0.014    93.014
   01/01/2000 06:05:00      0.001     0.000     0.014    93.014
   01/01/2000 06:10:00      0.001     0.000     0.014    93.014
   01/01/2000 06:15:00      0.001     0.000     0.014    93.014
   01/01/2000 06:20:00      0.001     0.000     0.014    93.014
   01/01/2000 06:25:00      0.001     0.000     0.014    93.014
   01/01/2000 06:30:00      0.001     0.000     0.014    93.014
   01/01/2000 06:35:00      0.001     0.000     0.014    93.014
   01/01/2000 06:40:00      0.001     0.000     0.015    93.015
   01/01/2000 06:45:00      0.001     0.000     0.015    93.015
   01/01/2000 06:50:00      0.001     0.000     0.015    93.015
   01/01/2000 06:55:00      0.001     0.000     0.015    93.015
   01/01/2000 07:00:00      0.001     0.000     0.015    93.015
   01/01/2000 07:05:00      0.001     0.000     0.015    93.015
   01/01/2000 07:10:00      0.001     0.000     0.015    93.015
   01/01/2000 07:15:00      0.001     0.000     0.015    93.015
   01/01/2000 07:20:00      0.001     0.000     0.015    93.015
   01/01/2000 07:25:00      0.001     0.000     0.015    93.015
   01/01/2000 07:30:00      0.001     0.000     0.016    93.016
   01/01/2000 07:35:00      0.001     0.000     0.016    93.016
   01/01/2000 07:40:00      0.001     0.000     0.016    93.016
   01/01/2000 07:45:00      0.001     0.000     0.016    93.016
   01/01/2000 07:50:00      0.001     0.000     0.016    93.016
   01/01/2000 07:55:00      0.001     0.000     0.016    93.016
   01/01/2000 08:00:00      0.001     0.000     0.016    93.016
   01/01/2000 08:05:00      0.001     0.000     0.016    93.016
   01/01/2000 08:10:00      0.001     0.000     0.016    93.016
   01/01/2000 08:15:00      0.001     0.000     0.016    93.016
   01/01/2000 08:20:00      0.001     0.000     0.016    93.016
   01/01/2000 08:25:00      0.001     0.000     0.016    93.016
   01/01/2000 08:30:00      0.001     0.000     0.017    93.017
   01/01/2000 08:35:00      0.001     0.000     0.017    93.017
   01/01/2000 08:40:00      0.001     0.000     0.017    93.017
   01/01/2000 08:45:00      0.001     0.000     0.017    93.017
   01/01/2000 08:50:00      0.001     0.000     0.017    93.017
   01/01/2000 08:55:00      0.001     0.000     0.017    93.017
   01/01/2000 09:00:00      0.001     0.000     0.017    93.017
   01/01/2000 09:05:00      0.001     0.000     0.017    93.017
   01/01/2000 09:10:00      0.001     0.000     0.017    93.017
   01/01/2000 09:15:00      0.001     0.000     0.017    93.017
   01/01/2000 09:20:00      0.001     0.000     0.017    93.017
   01/01/2000 09:25:00      0.001     0.000     0.018    93.018
   01/01/2000 09:30:00      0.001     0.000     0.018    93.018
   01/01/2000 09:35:00      0.002     0.000     0.018    93.018
   01/01/2000 09:40:00      0.002     0.000     0.018    93.018
   01/01/2000 09:45:00      0.002     0.000     0.018    93.018
   01/01/2000 09:50:00      0.002     0.000     0.018    93.018
   01/01/2000 09:55:00      0.002     0.000     0.019    93.019
   01/01/2000 10:00:00      0.002     0.000     0.019    93.019
   01/01/2000 10:05:00      0.002     0.000     0.019    93.019
   01/01/2000 10:10:00      0.002     0.000     0.019    93.019
   01/01/2000 10:15:00      0.002     0.000     0.019    93.019
   01/01/2000 10:20:00      0.002     0.000     0.020    93.020
   01/01/2000 10:25:00      0.002     0.000     0.020    93.020
   01/01/2000 10:30:00      0.002     0.000     0.020    93.020
   01/01/2000 10:35:00      0.002     0.000     0.020    93.020
   01/01/2000 10:40:00      0.002     0.000     0.020    93.020
   01/01/2000 10:45:00      0.002     0.000     0.020    93.020
   01/01/2000 10:50:00      0.002     0.000     0.021    93.021
   01/01/2000 10:55:00      0.002     0.000     0.021    93.021
   01/01/2000 11:00:00      0.002     0.000     0.021    93.021
   01/01/2000 11:05:00      0.002     0.000     0.021    93.021
   01/01/2000 11:10:00      0.002     0.000     0.021    93.021
   01/01/2000 11:15:00      0.002     0.000     0.022    93.022
   01/01/2000 11:20:00      0.002     0.000     0.022    93.022
   01/01/2000 11:25:00      0.002     0.000     0.022    93.022
   01/01/2000 11:30:00      0.003     0.000     0.023    93.023
   01/01/2000 11:35:00      0.003     0.000     0.023    93.023
   01/01/2000 11:40:00      0.003     0.000     0.024    93.024
   01/01/2000 11:45:00      0.003     0.000     0.024    93.024
   01/01/2000 11:50:00      0.003     0.000     0.025    93.025
   01/01/2000 11:55:00      0.003     0.000     0.025    93.025
   01/01/2000 12:00:00      0.003     0.000     0.026    93.026
   01/01/2000 12:05:00      0.004     0.000     0.027    93.027
   01/01/2000 12:10:00      0.004     0.000     0.028    93.028
   01/01/2000 12:15:00      0.004     0.000     0.029    93.029
   01/01/2000 12:20:00      0.005     0.000     0.030    93.030
   01/01/2000 12:25:00      0.006     0.000     0.033    93.033
   01/01/2000 12:30:00      0.007     0.000     0.037    93.037
   01/01/2000 12:35:00      0.009     0.000     0.042    93.042
   01/01/2000 12:40:00      0.014     0.000     0.050    93.050
   01/01/2000 12:45:00      0.022     0.000     0.062    93.062
   01/01/2000 12:50:00      0.038     0.000     0.080    93.080
   01/01/2000 12:55:00      0.058     0.000     0.098    93.098
   01/01/2000 13:00:00      0.069     0.000     0.106    93.106
   01/01/2000 13:05:00      0.058     0.000     0.098    93.098
   01/01/2000 13:10:00      0.050     0.000     0.091    93.091
   01/01/2000 13:15:00      0.043     0.000     0.085    93.085
   01/01/2000 13:20:00      0.038     0.000     0.080    93.080
   01/01/2000 13:25:00      0.033     0.000     0.075    93.075
   01/01/2000 13:30:00      0.029     0.000     0.071    93.071
   01/01/2000 13:35:00      0.026     0.000     0.067    93.067
   01/01/2000 13:40:00      0.023     0.000     0.064    93.064
   01/01/2000 13:45:00      0.021     0.000     0.061    93.061
   01/01/2000 13:50:00      0.019     0.000     0.058    93.058
   01/01/2000 13:55:00      0.017     0.000     0.056    93.056
   01/01/2000 14:00:00      0.016     0.000     0.053    93.053
   01/01/2000 14:05:00      0.015     0.000     0.051    93.051
   01/01/2000 14:10:00      0.014     0.000     0.050    93.050
   01/01/2000 14:15:00      0.013     0.000     0.048    93.048
   01/01/2000 14:20:00      0.012     0.000     0.046    93.046
   01/01/2000 14:25:00      0.011     0.000     0.045    93.045
   01/01/2000 14:30:00      0.010     0.000     0.044    93.044
   01/01/2000 14:35:00      0.010     0.000     0.043    93.043
   01/01/2000 14:40:00      0.009     0.000     0.041    93.041
   01/01/2000 14:45:00      0.009     0.000     0.040    93.040
   01/01/2000 14:50:00      0.008     0.000     0.039    93.039
   01/01/2000 14:55:00      0.008     0.000     0.038    93.038
   01/01/2000 15:00:00      0.007     0.000     0.037    93.037
   01/01/2000 15:05:00      0.007     0.000     0.037    93.037
   01/01/2000 15:10:00      0.007     0.000     0.036    93.036
   01/01/2000 15:15:00      0.006     0.000     0.035    93.035
   01/01/2000 15:20:00      0.006     0.000     0.034    93.034
   01/01/2000 15:25:00      0.006     0.000     0.034    93.034
   01/01/2000 15:30:00      0.006     0.000     0.033    93.033
   01/01/2000 15:35:00      0.006     0.000     0.033    93.033
   01/01/2000 15:40:00      0.005     0.000     0.032    93.032
   01/01/2000 15:45:00      0.005     0.000     0.032    93.032
   01/01/2000 15:50:00      0.005     0.000     0.031    93.031
   01/01/2000 15:55:00      0.005     0.000     0.031    93.031
   01/01/2000 16:00:00      0.005     0.000     0.030    93.030
   01/01/2000 16:05:00      0.005     0.000     0.030    93.030
   01/01/2000 16:10:00      0.004     0.000     0.029    93.029
   01/01/2000 16:15:00      0.004     0.000     0.029    93.029
   01/01/2000 16:20:00      0.004     0.000     0.029    93.029
   01/01/2000 16:25:00      0.004     0.000     0.028    93.028
   01/01/2000 16:30:00      0.004     0.000     0.028    93.028
   01/01/2000 16:35:00      0.004     0.000     0.028    93.028
   01/01/2000 16:40:00      0.004     0.000     0.027    93.027
   01/01/2000 16:45:00      0.004     0.000     0.027    93.027
   01/01/2000 16:50:00      0.004     0.000     0.027    93.027
   01/01/2000 16:55:00      0.003     0.000     0.026    93.026
   01/01/2000 17:00:00      0.003     0.000     0.026    93.026
   01/01/2000 17:05:00      0.003     0.000     0.026    93.026
   01/01/2000 17:10:00      0.003     0.000     0.026    93.026
   01/01/2000 17:15:00      0.003     0.000     0.025    93.025
   01/01/2000 17:20:00      0.003     0.000     0.025    93.025
   01/01/2000 17:25:00      0.003     0.000     0.025    93.025
   01/01/2000 17:30:00      0.003     0.000     0.025    93.025
   01/01/2000 17:35:00      0.003     0.000     0.024    93.024
   01/01/2000 17:40:00      0.003     0.000     0.024    93.024
   01/01/2000 17:45:00      0.003     0.000     0.024    93.024
   01/01/2000 17:50:00      0.003     0.000     0.024    93.024
   01/01/2000 17:55:00      0.003     0.000     0.024    93.024
   01/01/2000 18:00:00      0.003     0.000     0.023    93.023
   01/01/2000 18:05:00      0.003     0.000     0.023    93.023
   01/01/2000 18:10:00      0.003     0.000     0.023    93.023
   01/01/2000 18:15:00      0.003     0.000     0.023    93.023
   01/01/2000 18:20:00      0.003     0.000     0.023    93.023
   01/01/2000 18:25:00      0.002     0.000     0.023    93.023
   01/01/2000 18:30:00      0.002     0.000     0.022    93.022
   01/01/2000 18:35:00      0.002     0.000     0.022    93.022
   01/01/2000 18:40:00      0.002     0.000     0.022    93.022
   01/01/2000 18:45:00      0.002     0.000     0.022    93.022
   01/01/2000 18:50:00      0.002     0.000     0.022    93.022
   01/01/2000 18:55:00      0.002     0.000     0.022    93.022
   01/01/2000 19:00:00      0.002     0.000     0.022    93.022
   01/01/2000 19:05:00      0.002     0.000     0.021    93.021
   01/01/2000 19:10:00      0.002     0.000     0.021    93.021
   01/01/2000 19:15:00      0.002     0.000     0.021    93.021
   01/01/2000 19:20:00      0.002     0.000     0.021    93.021
   01/01/2000 19:25:00      0.002     0.000     0.021    93.021
   01/01/2000 19:30:00      0.002     0.000     0.021    93.021
   01/01/2000 19:35:00      0.002     0.000     0.021    93.021
   01/01/2000 19:40:00      0.002     0.000     0.021    93.021
   01/01/2000 19:45:00      0.002     0.000     0.021    93.021
   01/01/2000 19:50:00      0.002     0.000     0.020    93.020
   01/01/2000 19:55:00      0.002     0.000     0.020    93.020
   01/01/2000 20:00:00      0.002     0.000     0.020    93.020
   01/01/2000 20:05:00      0.002     0.000     0.020    93.020
   01/01/2000 20:10:00      0.002     0.000     0.020    93.020
   01/01/2000 20:15:00      0.002     0.000     0.020    93.020
   01/01/2000 20:20:00      0.002     0.000     0.020    93.020
   01/01/2000 20:25:00      0.002     0.000     0.020    93.020
   01/01/2000 20:30:00      0.002     0.000     0.020    93.020
   01/01/2000 20:35:00      0.002     0.000     0.019    93.019
   01/01/2000 20:40:00      0.002     0.000     0.019    93.019
   01/01/2000 20:45:00      0.002     0.000     0.019    93.019
   01/01/2000 20:50:00      0.002     0.000     0.019    93.019
   01/01/2000 20:55:00      0.002     0.000     0.019    93.019
   01/01/2000 21:00:00      0.002     0.000     0.019    93.019
   01/01/2000 21:05:00      0.002     0.000     0.019    93.019
   01/01/2000 21:10:00      0.002     0.000     0.019    93.019
   01/01/2000 21:15:00      0.002     0.000     0.019    93.019
   01/01/2000 21:20:00      0.002     0.000     0.018    93.018
   01/01/2000 21:25:00      0.002     0.000     0.018    93.018
   01/01/2000 21:30:00      0.002     0.000     0.018    93.018
   01/01/2000 21:35:00      0.002     0.000     0.018    93.018
   01/01/2000 21:40:00      0.002     0.000     0.018    93.018
   01/01/2000 21:45:00      0.002     0.000     0.018    93.018
   01/01/2000 21:50:00      0.002     0.000     0.018    93.018
   01/01/2000 21:55:00      0.002     0.000     0.018    93.018
   01/01/2000 22:00:00      0.001     0.000     0.018    93.018
   01/01/2000 22:05:00      0.001     0.000     0.018    93.018
   01/01/2000 22:10:00      0.001     0.000     0.018    93.018
   01/01/2000 22:15:00      0.001     0.000     0.018    93.018
   01/01/2000 22:20:00      0.001     0.000     0.018    93.018
   01/01/2000 22:25:00      0.001     0.000     0.017    93.017
   01/01/2000 22:30:00      0.001     0.000     0.017    93.017
   01/01/2000 22:35:00      0.001     0.000     0.017    93.017
   01/01/2000 22:40:00      0.001     0.000     0.017    93.017
   01/01/2000 22:45:00      0.001     0.000     0.017    93.017
   01/01/2000 22:50:00      0.001     0.000     0.017    93.017
   01/01/2000 22:55:00      0.001     0.000     0.017    93.017
   01/01/2000 23:00:00      0.001     0.000     0.017    93.017
   01/01/2000 23:05:00      0.001     0.000     0.017    93.017
   01/01/2000 23:10:00      0.001     0.000     0.017    93.017
   01/01/2000 23:15:00      0.001     0.000     0.017    93.017
   01/01/2000 23:20:00      0.001     0.000     0.017    93.017
   01/01/2000 23:25:00      0.001     0.000     0.017    93.017
   01/01/2000 23:30:00      0.001     0.000     0.017    93.017
   01/01/2000 23:35:00      0.001     0.000     0.017    93.017
   01/01/2000 23:40:00      0.001     0.000     0.017    93.017
   01/01/2000 23:45:00      0.001     0.000     0.017    93.017
   01/01/2000 23:50:00      0.001     0.000     0.017    93.017
   01/01/2000 23:55:00      0.001     0.000     0.017    93.017
   01/02/2000 00:00:00      0.001     0.000     0.017    93.017
  
  
  <<< Node J1 >>>
  ----------------------------------------------------------------
                           Inflow  Flooding     Depth      Head
  Date        Time            CMS       CMS    meters    meters
  ----------------------------------------------------------------
   01/01/2000 00:05:00      0.000     0.000     0.000    96.000
   01/01/2000 00:10:00      0.000     0.000     0.000    96.000
   01/01/2000 00:15:00      0.000     0.000     0.000    96.000
   01/01/2000 00:20:00      0.000     0.000     0.000    96.000
   01/01/2000 00:25:00      0.000     0.000     0.000    96.000
   01/01/2000 00:30:00      0.000     0.000     0.000    96.000
   01/01/2000 00:35:00      0.000     0.000     0.000    96.000
   01/01/2000 00:40:00      0.000     0.000     0.000    96.000
   01/01/2000 00:45:00      0.000     0.000     0.000    96.000
   01/01/2000 00:50:00      0.000     0.000     0.000    96.000
   01/01/2000 00:55:00      0.000     0.000     0.000    96.000
   01/01/2000 01:00:00      0.000     0.000     0.000    96.000
   01/01/2000 01:05:00      0.000     0.000     0.001    96.001
   01/01/2000 01:10:00      0.000     0.000     0.001    96.001
   01/01/2000 01:15:00      0.000     0.000     0.001    96.001
   01/01/2000 01:20:00      0.000     0.000     0.002    96.002
   01/01/2000 01:25:00      0.000     0.000     0.002    96.002
   01/01/2000 01:30:00      0.000     0.000     0.002    96.002
   01/01/2000 01:35:00      0.000     0.000     0.003    96.003
   01/01/2000 01:40:00      0.000     0.000     0.003    96.003
   01/01/2000 01:45:00      0.000     0.000     0.003    96.003
   01/01/2000 01:50:00      0.000     0.000     0.003    96.003
   01/01/2000 01:55:00      0.000     0.000     0.004    96.004
   01/01/2000 02:00:00      0.000     0.000     0.004    96.004
   01/01/2000 02:05:00      0.000     0.000     0.004    96.004
   01/01/2000 02:10:00      0.000     0.000     0.005    96.005
   01/01/2000 02:15:00      0.000     0.000     0.005    96.005
   01/01/2000 02:20:00      0.000     0.000     0.006    96.006
   01/01/2000 02:25:00      0.000     0.000     0.006    96.006
   01/01/2000 02:30:00      0.000     0.000     0.007    96.007
   01/01/2000 02:35:00      0.000     0.000     0.007    96.007
   01/01/2000 02:40:00      0.000     0.000     0.008    96.008
   01/01/2000 02:45:00      0.000     0.000     0.008    96.008
   01/01/2000 02:50:00      0.000     0.000     0.008    96.008
   01/01/2000 02:55:00      0.000     0.000     0.009    96.009
   01/01/2000 03:00:00      0.000     0.000     0.009    96.009
   01/01/2000 03:05:00      0.000     0.000     0.010    96.010
   01/01/2000 03:10:00      0.000     0.000     0.010    96.010
   01/01/2000 03:15:00      0.001     0.000     0.010    96.010
   01/01/2000 03:20:00      0.001     0.000     0.011    96.011
   01/01/2000 03:25:00      0.001     0.000     0.011    96.011
   01/01/2000 03:30:00      0.001     0.000     0.011    96.011
   01/01/2000 03:35:00      0.001     0.000     0.011    96.011
   01/01/2000 03:40:00      0.001     0.000     0.012    96.012
   01/01/2000 03:45:00      0.001     0.000     0.012    96.012
   01/01/2000 03:50:00      0.001     0.000     0.012    96.012
   01/01/2000 03:55:00      0.001     0.000     0.013    96.013
   01/01/2000 04:00:00      0.001     0.000     0.013    96.013
   01/01/2000 04:05:00      0.001     0.000     0.013    96.013
   01/01/2000 04:10:00      0.001     0.000     0.013    96.013
   01/01/2000 04:15:00      0.001     0.000     0.013    96.013
   01/01/2000 04:20:00      0.001     0.000     0.014    96.014
   01/01/2000 04:25:00      0.001     0.000     0.014    96.014
   01/01/2000 04:30:00      0.001     0.000     0.014    96.014
   01/01/2000 04:35:00      0.001     0.000     0.014    96.014
   01/01/2000 04:40:00      0.001     0.000     0.014    96.014
   01/01/2000 04:45:00      0.001     0.000     0.014    96.014
   01/01/2000 04:50:00      0.001     0.000     0.015    96.015
   01/01/2000 04:55:00      0.001     0.000     0.015    96.015
   01/01/2000 05:00:00      0.001     0.000     0.015    96.015
   01/01/2000 05:05:00      0.001     0.000     0.015    96.015
   01/01/2000 05:10:00      0.001     0.000     0.015    96.015
   01/01/2000 05:15:00      0.001     0.000     0.015    96.015
   01/01/2000 05:20:00      0.001     0.000     0.015    96.015
   01/01/2000 05:25:00      0.001     0.000     0.015    96.015
   01/01/2000 05:30:00      0.001     0.000     0.016    96.016
   01/01/2000 05:35:00      0.001     0.000     0.016    96.016
   01/01/2000 05:40:00      0.001     0.000     0.016    96.016
   01/01/2000 05:45:00      0.001     0.000     0.016    96.016
[...]
   01/01/2000 22:35:00      0.002     0.646     0.015     0.003
   01/01/2000 22:40:00      0.002     0.644     0.015     0.003
   01/01/2000 22:45:00      0.002     0.643     0.015     0.003
   01/01/2000 22:50:00      0.002     0.641     0.015     0.003
   01/01/2000 22:55:00      0.002     0.640     0.015     0.003
   01/01/2000 23:00:00      0.002     0.639     0.015     0.003
   01/01/2000 23:05:00      0.002     0.638     0.015     0.003
   01/01/2000 23:10:00      0.002     0.636     0.015     0.003
   01/01/2000 23:15:00      0.002     0.635     0.015     0.003
   01/01/2000 23:20:00      0.002     0.634     0.015     0.003
   01/01/2000 23:25:00      0.002     0.633     0.015     0.003
   01/01/2000 23:30:00      0.002     0.632     0.015     0.003
   01/01/2000 23:35:00      0.002     0.631     0.015     0.003
   01/01/2000 23:40:00      0.002     0.630     0.015     0.003
   01/01/2000 23:45:00      0.002     0.629     0.015     0.003
   01/01/2000 23:50:00      0.002     0.628     0.015     0.003
   01/01/2000 23:55:00      0.002     0.626     0.015     0.003
   01/02/2000 00:00:00      0.002     0.625     0.015     0.003
  
  
  <<< Link C1 >>>
  ----------------------------------------------------------------
                             Flow  Velocity     Depth  Capacity/
  Date        Time            CMS     m/sec    meters   Setting 
  ----------------------------------------------------------------
   01/01/2000 00:05:00      0.000     0.000     0.000     0.000
   01/01/2000 00:10:00      0.000     0.000     0.000     0.000
   01/01/2000 00:15:00      0.000     0.000     0.000     0.000
   01/01/2000 00:20:00      0.000     0.000     0.000     0.000
   01/01/2000 00:25:00      0.000     0.000     0.000     0.000
   01/01/2000 00:30:00      0.000     0.000     0.000     0.000
   01/01/2000 00:35:00      0.000     0.000     0.000     0.000
   01/01/2000 00:40:00      0.000     0.000     0.000     0.000
   01/01/2000 00:45:00      0.000     0.000     0.000     0.000
   01/01/2000 00:50:00      0.000     0.000     0.000     0.000
   01/01/2000 00:55:00      0.000     0.000     0.000     0.000
   01/01/2000 01:00:00      0.000     0.000     0.000     0.000
   01/01/2000 01:05:00      0.000     0.000     0.000     0.000
   01/01/2000 01:10:00      0.000     0.000     0.000     0.000
   01/01/2000 01:15:00      0.000     0.000     0.001     0.000
   01/01/2000 01:20:00      0.000     0.000     0.001     0.000
   01/01/2000 01:25:00      0.000     0.000     0.001     0.000
   01/01/2000 01:30:00      0.000     0.000     0.001     0.000
   01/01/2000 01:35:00      0.000     0.000     0.002     0.000
   01/01/2000 01:40:00      0.000     0.000     0.002     0.000
   01/01/2000 01:45:00      0.000     0.000     0.002     0.000
   01/01/2000 01:50:00      0.000     0.000     0.003     0.000
   01/01/2000 01:55:00      0.000     0.000     0.003     0.000
   01/01/2000 02:00:00      0.000     0.061     0.003     0.000
   01/01/2000 02:05:00      0.000     0.070     0.004     0.001
   01/01/2000 02:10:00      0.000     0.080     0.004     0.001
   01/01/2000 02:15:00      0.000     0.093     0.004     0.001
   01/01/2000 02:20:00      0.000     0.109     0.005     0.001
   01/01/2000 02:25:00      0.000     0.128     0.005     0.001
   01/01/2000 02:30:00      0.000     0.147     0.006     0.001
   01/01/2000 02:35:00      0.000     0.168     0.006     0.001
   01/01/2000 02:40:00      0.000     0.188     0.007     0.001
   01/01/2000 02:45:00      0.000     0.208     0.007     0.001
   01/01/2000 02:50:00      0.000     0.227     0.008     0.001
   01/01/2000 02:55:00      0.000     0.245     0.008     0.001
   01/01/2000 03:00:00      0.000     0.263     0.009     0.002
   01/01/2000 03:05:00      0.000     0.279     0.009     0.002
   01/01/2000 03:10:00      0.000     0.294     0.009     0.002
   01/01/2000 03:15:00      0.000     0.308     0.010     0.002
   01/01/2000 03:20:00      0.000     0.322     0.010     0.002
   01/01/2000 03:25:00      0.001     0.334     0.011     0.002
   01/01/2000 03:30:00      0.001     0.346     0.011     0.002
   01/01/2000 03:35:00      0.001     0.357     0.011     0.002
   01/01/2000 03:40:00      0.001     0.367     0.011     0.002
   01/01/2000 03:45:00      0.001     0.377     0.012     0.002
   01/01/2000 03:50:00      0.001     0.386     0.012     0.002
   01/01/2000 03:55:00      0.001     0.394     0.012     0.002
   01/01/2000 04:00:00      0.001     0.403     0.012     0.002
   01/01/2000 04:05:00      0.001     0.410     0.013     0.003
   01/01/2000 04:10:00      0.001     0.417     0.013     0.003
   01/01/2000 04:15:00      0.001     0.424     0.013     0.003
   01/01/2000 04:20:00      0.001     0.431     0.013     0.003
   01/01/2000 04:25:00      0.001     0.437     0.014     0.003
   01/01/2000 04:30:00      0.001     0.442     0.014     0.003
   01/01/2000 04:35:00      0.001     0.448     0.014     0.003
   01/01/2000 04:40:00      0.001     0.453     0.014     0.003
   01/01/2000 04:45:00      0.001     0.458     0.014     0.003
   01/01/2000 04:50:00      0.001     0.462     0.014     0.003
   01/01/2000 04:55:00      0.001     0.467     0.015     0.003
   01/01/2000 05:00:00      0.001     0.471     0.015     0.003
   01/01/2000 05:05:00      0.001     0.475     0.015     0.003
   01/01/2000 05:10:00      0.001     0.478     0.015     0.003
   01/01/2000 05:15:00      0.001     0.482     0.015     0.003
   01/01/2000 05:20:00      0.001     0.485     0.015     0.003
   01/01/2000 05:25:00      0.001     0.489     0.015     0.003
   01/01/2000 05:30:00      0.001     0.492     0.015     0.003
   01/01/2000 05:35:00      0.001     0.495     0.016     0.003
   01/01/2000 05:40:00      0.001     0.498     0.016     0.003
   01/01/2000 05:45:00      0.001     0.502     0.016     0.003
   01/01/2000 05:50:00      0.001     0.505     0.016     0.003
   01/01/2000 05:55:00      0.001     0.508     0.016     0.003
   01/01/2000 06:00:00      0.001     0.511     0.016     0.003
   01/01/2000 06:05:00      0.001     0.514     0.016     0.004
   01/01/2000 06:10:00      0.001     0.516     0.016     0.004
   01/01/2000 06:15:00      0.001     0.519     0.016     0.004
   01/01/2000 06:20:00      0.001     0.522     0.017     0.004
   01/01/2000 06:25:00      0.002     0.525     0.017     0.004
   01/01/2000 06:30:00      0.002     0.528     0.017     0.004
   01/01/2000 06:35:00      0.002     0.530     0.017     0.004
   01/01/2000 06:40:00      0.002     0.533     0.017     0.004
   01/01/2000 06:45:00      0.002     0.535     0.017     0.004
   01/01/2000 06:50:00      0.002     0.538     0.017     0.004
   01/01/2000 06:55:00      0.002     0.540     0.017     0.004
   01/01/2000 07:00:00      0.002     0.543     0.017     0.004
   01/01/2000 07:05:00      0.002     0.545     0.017     0.004
   01/01/2000 07:10:00      0.002     0.548     0.018     0.004
   01/01/2000 07:15:00      0.002     0.550     0.018     0.004
   01/01/2000 07:20:00      0.002     0.552     0.018     0.004
   01/01/2000 07:25:00      0.002     0.555     0.018     0.004
   01/01/2000 07:30:00      0.002     0.557     0.018     0.004
   01/01/2000 07:35:00      0.002     0.559     0.018     0.004
   01/01/2000 07:40:00      0.002     0.562     0.018     0.004
   01/01/2000 07:45:00      0.002     0.564     0.018     0.004
   01/01/2000 07:50:00      0.002     0.566     0.018     0.004
   01/01/2000 07:55:00      0.002     0.568     0.018     0.004
   01/01/2000 08:00:00      0.002     0.570     0.018     0.004
   01/01/2000 08:05:00      0.002     0.572     0.019     0.004
   01/01/2000 08:10:00      0.002     0.574     0.019     0.004
   01/01/2000 08:15:00      0.002     0.576     0.019     0.004
   01/01/2000 08:20:00      0.002     0.578     0.019     0.004
   01/01/2000 08:25:00      0.002     0.580     0.019     0.004
   01/01/2000 08:30:00      0.002     0.582     0.019     0.004
   01/01/2000 08:35:00      0.002     0.584     0.019     0.004
   01/01/2000 08:40:00      0.002     0.586     0.019     0.004
   01/01/2000 08:45:00      0.002     0.588     0.019     0.004
   01/01/2000 08:50:00      0.002     0.590     0.019     0.004
   01/01/2000 08:55:00      0.002     0.592     0.019     0.005
   01/01/2000 09:00:00      0.002     0.594     0.019     0.005
   01/01/2000 09:05:00      0.002     0.596     0.020     0.005
   01/01/2000 09:10:00      0.002     0.597     0.020     0.005
   01/01/2000 09:15:00      0.002     0.599     0.020     0.005
   01/01/2000 09:20:00      0.002     0.601     0.020     0.005
   01/01/2000 09:25:00      0.002     0.603     0.020     0.005
   01/01/2000 09:30:00      0.002     0.606     0.020     0.005
   01/01/2000 09:35:00      0.002     0.608     0.020     0.005
   01/01/2000 09:40:00      0.002     0.611     0.021     0.005
   01/01/2000 09:45:00      0.002     0.614     0.021     0.005
   01/01/2000 09:50:00      0.002     0.618     0.021     0.005
   01/01/2000 09:55:00      0.003     0.622     0.021     0.005
   01/01/2000 10:00:00      0.003     0.626     0.022     0.005
   01/01/2000 10:05:00      0.003     0.631     0.022     0.005
   01/01/2000 10:10:00      0.003     0.636     0.022     0.006
   01/01/2000 10:15:00      0.003     0.641     0.022     0.006
   01/01/2000 10:20:00      0.003     0.645     0.023     0.006
   01/01/2000 10:25:00      0.003     0.649     0.023     0.006
   01/01/2000 10:30:00      0.003     0.652     0.023     0.006
   01/01/2000 10:35:00      0.003     0.655     0.023     0.006
   01/01/2000 10:40:00      0.003     0.657     0.023     0.006
   01/01/2000 10:45:00      0.003     0.660     0.023     0.006
   01/01/2000 10:50:00      0.003     0.663     0.024     0.006
   01/01/2000 10:55:00      0.003     0.666     0.024     0.006
   01/01/2000 11:00:00      0.003     0.670     0.024     0.006
   01/01/2000 11:05:00      0.003     0.675     0.024     0.006
   01/01/2000 11:10:00      0.004     0.679     0.025     0.007
   01/01/2000 11:15:00      0.004     0.685     0.025     0.007
   01/01/2000 11:20:00      0.004     0.691     0.026     0.007
   01/01/2000 11:25:00      0.004     0.697     0.026     0.007
   01/01/2000 11:30:00      0.004     0.705     0.026     0.007
   01/01/2000 11:35:00      0.004     0.712     0.027     0.007
   01/01/2000 11:40:00      0.004     0.720     0.027     0.008
   01/01/2000 11:45:00      0.005     0.728     0.028     0.008
   01/01/2000 11:50:00      0.005     0.738     0.029     0.008
   01/01/2000 11:55:00      0.005     0.749     0.029     0.008
   01/01/2000 12:00:00      0.005     0.760     0.030     0.009
   01/01/2000 12:05:00      0.005     0.771     0.031     0.009
   01/01/2000 12:10:00      0.006     0.782     0.032     0.009
   01/01/2000 12:15:00      0.006     0.796     0.033     0.010
   01/01/2000 12:20:00      0.007     0.813     0.034     0.010
   01/01/2000 12:25:00      0.007     0.833     0.035     0.011
   01/01/2000 12:30:00      0.008     0.854     0.036     0.012
   01/01/2000 12:35:00      0.009     0.844     0.040     0.013
   01/01/2000 12:40:00      0.012     0.857     0.047     0.018
   01/01/2000 12:45:00      0.019     1.002     0.060     0.024
   01/01/2000 12:50:00      0.033     1.176     0.077     0.036
   01/01/2000 12:55:00      0.064     1.582     0.099     0.051
   01/01/2000 13:00:00      0.076     1.691     0.106     0.057
   01/01/2000 13:05:00      0.074     1.836     0.099     0.051
   01/01/2000 13:10:00      0.058     1.695     0.089     0.044
   01/01/2000 13:15:00      0.048     1.578     0.081     0.038
   01/01/2000 13:20:00      0.040     1.501     0.075     0.034
   01/01/2000 13:25:00      0.034     1.427     0.069     0.031
   01/01/2000 13:30:00      0.029     1.367     0.065     0.027
   01/01/2000 13:35:00      0.025     1.311     0.060     0.025
   01/01/2000 13:40:00      0.022     1.248     0.057     0.023
   01/01/2000 13:45:00      0.020     1.193     0.054     0.021
   01/01/2000 13:50:00      0.018     1.149     0.051     0.019
   01/01/2000 13:55:00      0.016     1.111     0.049     0.018
   01/01/2000 14:00:00      0.014     1.080     0.047     0.017
   01/01/2000 14:05:00      0.013     1.050     0.045     0.016
   01/01/2000 14:10:00      0.012     1.024     0.043     0.015
   01/01/2000 14:15:00      0.011     1.003     0.041     0.014
   01/01/2000 14:20:00      0.010     0.984     0.040     0.013
   01/01/2000 14:25:00      0.010     0.964     0.039     0.013
   01/01/2000 14:30:00      0.009     0.945     0.038     0.012
   01/01/2000 14:35:00      0.009     0.926     0.037     0.012
   01/01/2000 14:40:00      0.008     0.908     0.036     0.011
   01/01/2000 14:45:00      0.008     0.892     0.035     0.011
   01/01/2000 14:50:00      0.007     0.877     0.034     0.011
   01/01/2000 14:55:00      0.007     0.863     0.033     0.010
   01/01/2000 15:00:00      0.007     0.850     0.032     0.010
   01/01/2000 15:05:00      0.006     0.837     0.032     0.010
   01/01/2000 15:10:00      0.006     0.824     0.031     0.009
   01/01/2000 15:15:00      0.006     0.813     0.031     0.009
   01/01/2000 15:20:00      0.006     0.802     0.030     0.009
   01/01/2000 15:25:00      0.005     0.793     0.030     0.009
   01/01/2000 15:30:00      0.005     0.784     0.029     0.008
   01/01/2000 15:35:00      0.005     0.776     0.029     0.008
   01/01/2000 15:40:00      0.005     0.768     0.028     0.008
   01/01/2000 15:45:00      0.005     0.760     0.028     0.008
   01/01/2000 15:50:00      0.005     0.753     0.027     0.008
   01/01/2000 15:55:00      0.004     0.747     0.027     0.008
   01/01/2000 16:00:00      0.004     0.741     0.027     0.007
   01/01/2000 16:05:00      0.004     0.735     0.026     0.007
   01/01/2000 16:10:00      0.004     0.729     0.026     0.007
   01/01/2000 16:15:00      0.004     0.724     0.026     0.007
   01/01/2000 16:20:00      0.004     0.719     0.026     0.007
   01/01/2000 16:25:00      0.004     0.714     0.025     0.007
   01/01/2000 16:30:00      0.004     0.709     0.025     0.007
   01/01/2000 16:35:00      0.004     0.705     0.025     0.007
   01/01/2000 16:40:00      0.004     0.700     0.025     0.006
   01/01/2000 16:45:00      0.003     0.695     0.024     0.006
   01/01/2000 16:50:00      0.003     0.691     0.024     0.006
   01/01/2000 16:55:00      0.003     0.687     0.024     0.006
   01/01/2000 17:00:00      0.003     0.683     0.024     0.006
   01/01/2000 17:05:00      0.003     0.678     0.023     0.006
   01/01/2000 17:10:00      0.003     0.674     0.023     0.006
   01/01/2000 17:15:00      0.003     0.670     0.023     0.006
   01/01/2000 17:20:00      0.003     0.666     0.023     0.006
   01/01/2000 17:25:00      0.003     0.662     0.023     0.006
   01/01/2000 17:30:00      0.003     0.659     0.022     0.006
   01/01/2000 17:35:00      0.003     0.655     0.022     0.006
   01/01/2000 17:40:00      0.003     0.652     0.022     0.005
   01/01/2000 17:45:00      0.003     0.649     0.022     0.005
   01/01/2000 17:50:00      0.003     0.646     0.022     0.005
   01/01/2000 17:55:00      0.003     0.643     0.022     0.005
   01/01/2000 18:00:00      0.003     0.641     0.021     0.005
   01/01/2000 18:05:00      0.003     0.638     0.021     0.005
   01/01/2000 18:10:00      0.003     0.636     0.021     0.005
   01/01/2000 18:15:00      0.003     0.634     0.021     0.005
   01/01/2000 18:20:00      0.003     0.631     0.021     0.005
   01/01/2000 18:25:00      0.002     0.629     0.021     0.005
   01/01/2000 18:30:00      0.002     0.627     0.021     0.005
   01/01/2000 18:35:00      0.002     0.625     0.021     0.005
   01/01/2000 18:40:00      0.002     0.623     0.020     0.005
   01/01/2000 18:45:00      0.002     0.621     0.020     0.005
   01/01/2000 18:50:00      0.002     0.619     0.020     0.005
   01/01/2000 18:55:00      0.002     0.617     0.020     0.005
   01/01/2000 19:00:00      0.002     0.615     0.020     0.005
   01/01/2000 19:05:00      0.002     0.613     0.020     0.005
   01/01/2000 19:10:00      0.002     0.610     0.020     0.005
   01/01/2000 19:15:00      0.002     0.608     0.020     0.005
   01/01/2000 19:20:00      0.002     0.606     0.020     0.005
   01/01/2000 19:25:00      0.002     0.603     0.019     0.005
   01/01/2000 19:30:00      0.002     0.601     0.019     0.004
   01/01/2000 19:35:00      0.002     0.599     0.019     0.004
   01/01/2000 19:40:00      0.002     0.596     0.019     0.004
   01/01/2000 19:45:00      0.002     0.594     0.019     0.004
   01/01/2000 19:50:00      0.002     0.592     0.019     0.004
   01/01/2000 19:55:00      0.002     0.589     0.019     0.004
   01/01/2000 20:00:00      0.002     0.587     0.019     0.004
   01/01/2000 20:05:00      0.002     0.585     0.019     0.004
   01/01/2000 20:10:00      0.002     0.582     0.019     0.004
   01/01/2000 20:15:00      0.002     0.580     0.018     0.004
   01/01/2000 20:20:00      0.002     0.578     0.018     0.004
   01/01/2000 20:25:00      0.002     0.575     0.018     0.004
   01/01/2000 20:30:00      0.002     0.573     0.018     0.004
   01/01/2000 20:35:00      0.002     0.571     0.018     0.004
   01/01/2000 20:40:00      0.002     0.568     0.018     0.004
   01/01/2000 20:45:00      0.002     0.566     0.018     0.004
   01/01/2000 20:50:00      0.002     0.564     0.018     0.004
   01/01/2000 20:55:00      0.002     0.561     0.018     0.004
   01/01/2000 21:00:00      0.002     0.559     0.018     0.004
   01/01/2000 21:05:00      0.002     0.556     0.017     0.004
   01/01/2000 21:10:00      0.002     0.554     0.017     0.004
   01/01/2000 21:15:00      0.002     0.551     0.017     0.004
   01/01/2000 21:20:00      0.002     0.549     0.017     0.004
   01/01/2000 21:25:00      0.002     0.546     0.017     0.004
   01/01/2000 21:30:00      0.002     0.544     0.017     0.004
   01/01/2000 21:35:00      0.002     0.542     0.017     0.004
   01/01/2000 21:40:00      0.002     0.540     0.017     0.004
   01/01/2000 21:45:00      0.002     0.538     0.017     0.004
   01/01/2000 21:50:00      0.002     0.536     0.017     0.004
   01/01/2000 21:55:00      0.002     0.535     0.017     0.004
   01/01/2000 22:00:00      0.002     0.533     0.017     0.004
   01/01/2000 22:05:00      0.002     0.531     0.017     0.004
   01/01/2000 22:10:00      0.001     0.530     0.016     0.004
   01/01/2000 22:15:00      0.001     0.528     0.016     0.004
   01/01/2000 22:20:00      0.001     0.527     0.016     0.004
   01/01/2000 22:25:00      0.001     0.526     0.016     0.004
   01/01/2000 22:30:00      0.001     0.524     0.016     0.004
   01/01/2000 22:35:00      0.001     0.523     0.016     0.004
   01/01/2000 22:40:00      0.001     0.522     0.016     0.004
   01/01/2000 22:45:00      0.001     0.521     0.016     0.003
   01/01/2000 22:50:00      0.001     0.520     0.016     0.003
   01/01/2000 22:55:00      0.001     0.519     0.016     0.003
   01/01/2000 23:00:00      0.001     0.518     0.016     0.003
   01/01/2000 23:05:00      0.001     0.516     0.016     0.003
   01/01/2000 23:10:00      0.001     0.516     0.016     0.003
   01/01/2000 23:15:00      0.001     0.515     0.016     0.003
   01/01/2000 23:20:00      0.001     0.514     0.016     0.003
   01/01/2000 23:25:00      0.001     0.513     0.016     0.003
   01/01/2000 23:30:00      0.001     0.512     0.016     0.003
   01/01/2000 23:35:00      0.001     0.511     0.016     0.003
   01/01/2000 23:40:00      0.001     0.510     0.016     0.003
   01/01/2000 23:45:00      0.001     0.509     0.016     0.003
   01/01/2000 23:50:00      0.001     0.508     0.016     0.003
   01/01/2000 23:55:00      0.001     0.507     0.016     0.003
   01/02/2000 00:00:00      0.001     0.507     0.016     0.003
  

  Analysis begun on:  Mon Jan 20 14:02:00 2020
  Analysis ended on:  Mon Jan 20 14:02:00 2020
  Total elapsed time: < 1 sec