
  EPA STORM WATER MANAGEMENT MODEL - VERSION 5.1 (Build 5.1.015)
  --------------------------------------------------------------

  
  *********************************************************
  NOTE: The summary statistics displayed in this report are
  based on results found at every computational time step,  
  not just on results from each reporting time step.
  *********************************************************
  
  ****************
  Analysis Options
  ****************
  Flow Units ............... CFS
  Process Models:
    Rainfall/Runoff ........ YES
    RDII ................... NO
    Snowmelt ............... NO
    Groundwater ............ NO
    Flow Routing ........... YES
    Ponding Allowed ........ NO
    Water Quality .......... NO
  Infiltration Method ...... MODIFIED_GREEN_AMPT
  Flow Routing Method ...... DYNWAVE
  Surcharge Method ......... EXTRAN
  Starting Date ............ 04/05/2022 00:00:00
  Ending Date .............. 04/05/2022 12:00:00
  Antecedent Dry Days ...... 5.0
  Report Time Step ......... 00:05:00
  Wet Time Step ............ 00:15:00
  Dry Time Step ............ 01:00:00
  Routing Time Step ........ 60.00 sec
  Variable Time Step ....... YES
  Maximum Trials ........... 8
  Number of Threads ........ 1
  Head Tolerance ........... 0.005000 ft
  
  
  **************************        Volume         Depth
  Runoff Quantity Continuity     acre-feet        inches
  **************************     ---------       -------
  Total Precipitation ......         3.000         3.000
  Evaporation Loss .........         0.000         0.000
  Infiltration Loss ........         1.750         1.750
  Surface Runoff ...........         1.246         1.246
  Final Storage ............         0.016         0.016
  Continuity Error (%) .....        -0.386
  
  
  **************************        Volume        Volume
  Flow Routing Continuity        acre-feet      10^6 gal
  **************************     ---------     ---------
  Dry Weather Inflow .......         0.000         0.000
  Wet Weather Inflow .......         1.246         0.406
  Groundwater Inflow .......         0.000         0.000
  RDII Inflow ..............         0.000         0.000
  External Inflow ..........         0.000         0.000
  External Outflow .........         1.245         0.406
  Flooding Loss ............         0.000         0.000
  Evaporation Loss .........         0.000         0.000
  Exfiltration Loss ........         0.000         0.000
  Initial Stored Volume ....         0.000         0.000
  Final Stored Volume ......         0.000         0.000
  Continuity Error (%) .....         0.013
  
  
  ***************************
  Time-Step Critical Elements
  ***************************
  Link C4 (56.86%)
  
  
  ********************************
  Highest Flow Instability Indexes
  ********************************
  All links are stable.
  
  
  *************************
  Routing Time Step Summary
  *************************
  Minimum Time Step           :    15.62 sec
  Average Time Step           :    45.24 sec
  Maximum Time Step           :    60.00 sec
  Percent in Steady State     :    -0.00
  Average Iterations per Step :     2.01
  Percent Not Converging      :     0.00
  Time Step Frequencies       :
     60.000 - 23.031 sec      :    99.90 %
     23.031 -  8.841 sec      :     0.10 %
      8.841 -  3.393 sec      :     0.00 %
      3.393 -  1.303 sec      :     0.00 %
      1.303 -  0.500 sec      :     0.00 %
  
  
  ***************************
  Subcatchment Runoff Summary
  ***************************
  
  ------------------------------------------------------------------------------------------------------------------------------
                            Total      Total      Total      Total     Imperv       Perv      Total       Total     Peak  Runoff
                           Precip      Runon       Evap      Infil     Runoff     Runoff     Runoff      Runoff   Runoff   Coeff
  Subcatchment                 in         in         in         in         in         in         in    10^6 gal      CFS
  ------------------------------------------------------------------------------------------------------------------------------
  S1                         3.00       0.00       0.00       1.50       1.49       0.00       1.49        0.16     2.02   0.498
  S2                         3.00       0.00       0.00       1.50       1.49       0.00       1.49        0.16     2.02   0.498
  S3                         3.00       0.00       0.00       2.25       0.75       0.00       0.75        0.08     1.01   0.250
  
  
  ******************
  Node Depth Summary
  ******************
  
  ---------------------------------------------------------------------------------
                                 Average  Maximum  Maximum  Time of Max    Reported
                                   Depth    Depth      HGL   Occurrence   Max Depth
  Node                 Type         Feet     Feet     Feet  days hr:min        Feet
  ---------------------------------------------------------------------------------
  J1                   JUNCTION     0.18     0.41    96.41     0  03:00        0.41
  J2                   JUNCTION     0.30     0.68    90.68     0  03:00        0.68
  J3                   JUNCTION     0.13     0.30    93.30     0  03:00        0.30
  J4                   JUNCTION     0.30     0.69    88.69     0  03:00        0.69
  Out1                 OUTFALL      0.30     0.69    85.69     0  03:00        0.68
  
  
  *******************
  Node Inflow Summary
  *******************
  
  -------------------------------------------------------------------------------------------------
                                  Maximum  Maximum                  Lateral       Total        Flow
                                  Lateral    Total  Time of Max      Inflow      Inflow     Balance
                                   Inflow   Inflow   Occurrence      Volume      Volume       Error
  Node                 Type           CFS      CFS  days hr:min    10^6 gal    10^6 gal     Percent
  -------------------------------------------------------------------------------------------------
  J1                   JUNCTION      2.02     2.02     0  03:00       0.162       0.162      -0.001
  J2                   JUNCTION      2.02     4.04     0  03:00       0.162       0.324       0.006
  J3                   JUNCTION      1.01     1.01     0  03:00      0.0814      0.0814      -0.028
  J4                   JUNCTION      0.00     5.06     0  03:00           0       0.406       0.017
  Out1                 OUTFALL       0.00     5.06     0  03:00           0       0.406       0.000
  
  
  **********************
  Node Surcharge Summary
  **********************
  
  No nodes were surcharged.
  
  
  *********************
  Node Flooding Summary
  *********************
  
  No nodes were flooded.
  
  
  ***********************
  Outfall Loading Summary
  ***********************
  
  -----------------------------------------------------------
                         Flow       Avg       Max       Total
                         Freq      Flow      Flow      Volume
  Outfall Node           Pcnt       CFS       CFS    10^6 gal
  -----------------------------------------------------------
  Out1                  89.01      1.98      5.06       0.406
  -----------------------------------------------------------
  System                89.01      1.98      5.06       0.406
  
  
  ********************
  Link Flow Summary
  ********************
  
  -----------------------------------------------------------------------------
                                 Maximum  Time of Max   Maximum    Max/    Max/
                                  |Flow|   Occurrence   |Veloc|    Full    Full
  Link                 Type          CFS  days hr:min    ft/sec    Flow   Depth
  -----------------------------------------------------------------------------
  C1                   CONDUIT      2.02     0  03:00      4.62    0.36    0.54
  C2                   CONDUIT      4.04     0  03:00      5.18    0.42    0.45
  C3                   CONDUIT      1.01     0  03:00      3.96    0.20    0.49
  C4                   CONDUIT      5.06     0  03:00      6.43    0.43    0.46
  
  
  ***************************
  Flow Classification Summary
  ***************************
  
  -------------------------------------------------------------------------------------
                      Adjusted    ---------- Fraction of Time in Flow Class ---------- 
                       /Actual         Up    Down  Sub   Sup   Up    Down  Norm  Inlet 
  Conduit               Length    Dry  Dry   Dry   Crit  Crit  Crit  Crit  Ltd   Ctrl  
  -------------------------------------------------------------------------------------
  C1                      1.00   0.06  0.00  0.00  0.32  0.62  0.00  0.00  0.91  0.00
  C2                      1.00   0.06  0.00  0.00  0.28  0.65  0.00  0.00  0.78  0.00
  C3                      1.00   0.06  0.00  0.00  0.93  0.01  0.00  0.00  0.91  0.00
  C4                      1.00   0.06  0.00  0.00  0.00  0.93  0.00  0.00  0.15  0.00
  
  
  *************************
  Conduit Surcharge Summary
  *************************
  
  No conduits were surcharged.
  
  
  ************
  Node Results
  ************
  
  <<< Node Out1 >>>
  ----------------------------------------------------------------
                           Inflow  Flooding     Depth      Head
  Date        Time            CFS       CFS      feet      feet
  ----------------------------------------------------------------
   04/05/2022 00:05:00      0.000     0.000     0.000    85.000
   04/05/2022 00:10:00      0.000     0.000     0.000    85.000
   04/05/2022 00:15:00      0.000     0.000     0.000    85.000
   04/05/2022 00:20:00      0.000     0.000     0.000    85.000
   04/05/2022 00:25:00      0.000     0.000     0.000    85.000
   04/05/2022 00:30:00      0.000     0.000     0.000    85.000
   04/05/2022 00:35:00      0.000     0.000     0.000    85.000
   04/05/2022 00:40:00      0.000     0.000     0.000    85.000
   04/05/2022 00:45:00      0.000     0.000     0.000    85.000
   04/05/2022 00:50:00      0.000     0.000     0.000    85.000
   04/05/2022 00:55:00      0.000     0.000     0.000    85.000
   04/05/2022 01:00:00      0.000     0.000     0.000    85.000
   04/05/2022 01:05:00      0.020     0.000     0.039    85.039
   04/05/2022 01:10:00      0.556     0.000     0.221    85.221
   04/05/2022 01:15:00      1.275     0.000     0.332    85.332
   04/05/2022 01:20:00      1.752     0.000     0.390    85.390
   04/05/2022 01:25:00      2.024     0.000     0.420    85.420
   04/05/2022 01:30:00      2.294     0.000     0.448    85.448
   04/05/2022 01:35:00      2.458     0.000     0.464    85.464
   04/05/2022 01:40:00      2.480     0.000     0.466    85.466
   04/05/2022 01:45:00      2.503     0.000     0.468    85.468
   04/05/2022 01:50:00      2.516     0.000     0.470    85.470
   04/05/2022 01:55:00      2.518     0.000     0.470    85.470
   04/05/2022 02:00:00      2.519     0.000     0.470    85.470
   04/05/2022 02:05:00      2.884     0.000     0.504    85.504
   04/05/2022 02:10:00      3.730     0.000     0.579    85.579
   04/05/2022 02:15:00      4.562     0.000     0.647    85.647
   04/05/2022 02:20:00      4.971     0.000     0.679    85.679
   04/05/2022 02:25:00      4.997     0.000     0.681    85.681
   04/05/2022 02:30:00      5.025     0.000     0.683    85.683
   04/05/2022 02:35:00      5.039     0.000     0.684    85.684
   04/05/2022 02:40:00      5.040     0.000     0.684    85.684
   04/05/2022 02:45:00      5.041     0.000     0.684    85.684
   04/05/2022 02:50:00      5.044     0.000     0.684    85.684
   04/05/2022 02:55:00      5.049     0.000     0.685    85.685
   04/05/2022 03:00:00      5.054     0.000     0.685    85.685
   04/05/2022 03:05:00      4.836     0.000     0.668    85.668
   04/05/2022 03:10:00      4.432     0.000     0.636    85.636
   04/05/2022 03:15:00      4.026     0.000     0.603    85.603
   04/05/2022 03:20:00      3.820     0.000     0.586    85.586
   04/05/2022 03:25:00      3.805     0.000     0.585    85.585
   04/05/2022 03:30:00      3.791     0.000     0.584    85.584
   04/05/2022 03:35:00      3.783     0.000     0.583    85.583
   04/05/2022 03:40:00      3.783     0.000     0.583    85.583
   04/05/2022 03:45:00      3.782     0.000     0.583    85.583
   04/05/2022 03:50:00      3.783     0.000     0.583    85.583
   04/05/2022 03:55:00      3.784     0.000     0.583    85.583
   04/05/2022 04:00:00      3.785     0.000     0.584    85.584
   04/05/2022 04:05:00      3.587     0.000     0.567    85.567
   04/05/2022 04:10:00      3.195     0.000     0.533    85.533
   04/05/2022 04:15:00      2.803     0.000     0.497    85.497
   04/05/2022 04:20:00      2.582     0.000     0.476    85.476
   04/05/2022 04:25:00      2.560     0.000     0.474    85.474
   04/05/2022 04:30:00      2.538     0.000     0.472    85.472
   04/05/2022 04:35:00      2.525     0.000     0.471    85.471
   04/05/2022 04:40:00      2.524     0.000     0.470    85.470
   04/05/2022 04:45:00      2.523     0.000     0.470    85.470
   04/05/2022 04:50:00      2.522     0.000     0.470    85.470
   04/05/2022 04:55:00      2.521     0.000     0.470    85.470
   04/05/2022 05:00:00      2.521     0.000     0.470    85.470
   04/05/2022 05:05:00      2.354     0.000     0.454    85.454
   04/05/2022 05:10:00      1.984     0.000     0.416    85.416
   04/05/2022 05:15:00      1.617     0.000     0.374    85.374
   04/05/2022 05:20:00      1.371     0.000     0.345    85.345
   04/05/2022 05:25:00      1.334     0.000     0.340    85.340
   04/05/2022 05:30:00      1.299     0.000     0.336    85.336
   04/05/2022 05:35:00      1.275     0.000     0.332    85.332
   04/05/2022 05:40:00      1.270     0.000     0.332    85.332
   04/05/2022 05:45:00      1.266     0.000     0.331    85.331
   04/05/2022 05:50:00      1.263     0.000     0.331    85.331
   04/05/2022 05:55:00      1.262     0.000     0.331    85.331
   04/05/2022 06:00:00      1.261     0.000     0.331    85.331
   04/05/2022 06:05:00      1.152     0.000     0.316    85.316
   04/05/2022 06:10:00      0.846     0.000     0.271    85.271
   04/05/2022 06:15:00      0.545     0.000     0.219    85.219
   04/05/2022 06:20:00      0.304     0.000     0.165    85.165
   04/05/2022 06:25:00      0.224     0.000     0.142    85.142
   04/05/2022 06:30:00      0.171     0.000     0.126    85.126
   04/05/2022 06:35:00      0.125     0.000     0.109    85.109
   04/05/2022 06:40:00      0.098     0.000     0.097    85.097
   04/05/2022 06:45:00      0.080     0.000     0.088    85.088
   04/05/2022 06:50:00      0.065     0.000     0.080    85.080
   04/05/2022 06:55:00      0.053     0.000     0.073    85.073
   04/05/2022 07:00:00      0.045     0.000     0.067    85.067
   04/05/2022 07:05:00      0.037     0.000     0.062    85.062
   04/05/2022 07:10:00      0.032     0.000     0.058    85.058
   04/05/2022 07:15:00      0.028     0.000     0.054    85.054
   04/05/2022 07:20:00      0.025     0.000     0.051    85.051
   04/05/2022 07:25:00      0.022     0.000     0.048    85.048
   04/05/2022 07:30:00      0.019     0.000     0.042    85.042
   04/05/2022 07:35:00      0.017     0.000     0.037    85.037
   04/05/2022 07:40:00      0.015     0.000     0.033    85.033
   04/05/2022 07:45:00      0.013     0.000     0.030    85.030
   04/05/2022 07:50:00      0.012     0.000     0.027    85.027
   04/05/2022 07:55:00      0.011     0.000     0.024    85.024
   04/05/2022 08:00:00      0.010     0.000     0.022    85.022
   04/05/2022 08:05:00      0.009     0.000     0.020    85.020
   04/05/2022 08:10:00      0.008     0.000     0.019    85.019
   04/05/2022 08:15:00      0.008     0.000     0.017    85.017
   04/05/2022 08:20:00      0.007     0.000     0.016    85.016
   04/05/2022 08:25:00      0.007     0.000     0.015    85.015
   04/05/2022 08:30:00      0.006     0.000     0.014    85.014
   04/05/2022 08:35:00      0.006     0.000     0.013    85.013
   04/05/2022 08:40:00      0.005     0.000     0.012    85.012
   04/05/2022 08:45:00      0.005     0.000     0.011    85.011
   04/05/2022 08:50:00      0.005     0.000     0.010    85.010
   04/05/2022 08:55:00      0.004     0.000     0.010    85.010
   04/05/2022 09:00:00      0.004     0.000     0.009    85.009
   04/05/2022 09:05:00      0.004     0.000     0.008    85.008
   04/05/2022 09:10:00      0.004     0.000     0.008    85.008
   04/05/2022 09:15:00      0.003     0.000     0.007    85.007
   04/05/2022 09:20:00      0.003     0.000     0.007    85.007
   04/05/2022 09:25:00      0.003     0.000     0.007    85.007
   04/05/2022 09:30:00      0.003     0.000     0.006    85.006
   04/05/2022 09:35:00      0.003     0.000     0.006    85.006
   04/05/2022 09:40:00      0.003     0.000     0.006    85.006
   04/05/2022 09:45:00      0.002     0.000     0.005    85.005
   04/05/2022 09:50:00      0.002     0.000     0.005    85.005
   04/05/2022 09:55:00      0.002     0.000     0.005    85.005
   04/05/2022 10:00:00      0.002     0.000     0.005    85.005
   04/05/2022 10:05:00      0.002     0.000     0.004    85.004
   04/05/2022 10:10:00      0.002     0.000     0.004    85.004
   04/05/2022 10:15:00      0.002     0.000     0.004    85.004
   04/05/2022 10:20:00      0.002     0.000     0.004    85.004
   04/05/2022 10:25:00      0.002     0.000     0.004    85.004
   04/05/2022 10:30:00      0.002     0.000     0.003    85.003
   04/05/2022 10:35:00      0.001     0.000     0.003    85.003
   04/05/2022 10:40:00      0.001     0.000     0.003    85.003
   04/05/2022 10:45:00      0.001     0.000     0.003    85.003
   04/05/2022 10:50:00      0.001     0.000     0.003    85.003
   04/05/2022 10:55:00      0.001     0.000     0.003    85.003
   04/05/2022 11:00:00      0.001     0.000     0.003    85.003
   04/05/2022 11:05:00      0.001     0.000     0.002    85.002
   04/05/2022 11:10:00      0.001     0.000     0.002    85.002
   04/05/2022 11:15:00      0.001     0.000     0.002    85.002
   04/05/2022 11:20:00      0.001     0.000     0.002    85.002
   04/05/2022 11:25:00      0.001     0.000     0.002    85.002
   04/05/2022 11:30:00      0.001     0.000     0.002    85.002
   04/05/2022 11:35:00      0.001     0.000     0.002    85.002
   04/05/2022 11:40:00      0.001     0.000     0.002    85.002
   04/05/2022 11:45:00      0.001     0.000     0.002    85.002
   04/05/2022 11:50:00      0.001     0.000     0.002    85.002
   04/05/2022 11:55:00      0.001     0.000     0.002    85.002
   04/05/2022 12:00:00      0.001     0.000     0.002    85.002
  

  Analysis begun on:  Tue Sep 13 14:55:43 2022
  Analysis ended on:  Tue Sep 13 14:55:43 2022
  Total elapsed time: < 1 sec