
  EPA STORM WATER MANAGEMENT MODEL - VERSION 5.1 (Build 5.1.013)
  --------------------------------------------------------------

  Scenario Run: BASE 
  
  
  *********************
  Rainfall File Summary
  *********************
  Station    First        Last         Recording   Periods    Periods    Periods
  ID         Date         Date         Frequency  w/Precip    Missing    Malfunc.
  -------------------------------------------------------------------------------
  rg_1       01/01/2000   01/02/2000      60 min       241          0          0

  
  *********************************************************
  NOTE: The summary statistics displayed in this report are
  based on results found at every computational time step,  
  not just on results from each reporting time step.
  *********************************************************
  
  ****************
  Analysis Options
  ****************
  Flow Units ............... CMS
  Process Models:
    Rainfall/Runoff ........ YES
    RDII ................... NO
    Snowmelt ............... NO
    Groundwater ............ NO
    Flow Routing ........... YES
    Ponding Allowed ........ NO
    Water Quality .......... NO
  Infiltration Method ...... MODIFIED_GREEN_AMPT
  Flow Routing Method ...... KINWAVE
  Starting Date ............ 01/01/2000 00:00:00
  Ending Date .............. 01/02/2000 00:00:00
  Antecedent Dry Days ...... 5.0
  Report Time Step ......... 00:05:00
  Wet Time Step ............ 00:15:00
  Dry Time Step ............ 01:00:00
  Routing Time Step ........ 60.00 sec
  
  
  **************************        Volume         Depth
  Runoff Quantity Continuity     hectare-m            mm
  **************************     ---------       -------
  Total Precipitation ......         0.119         9.888
  Evaporation Loss .........         0.000         0.000
  Infiltration Loss ........         0.023         1.897
  Surface Runoff ...........         0.093         7.745
  Final Storage ............         0.003         0.277
  Continuity Error (%) .....        -0.313
  
  
  **************************        Volume        Volume
  Flow Routing Continuity        hectare-m      10^6 ltr
  **************************     ---------     ---------
  Dry Weather Inflow .......         0.000         0.000
  Wet Weather Inflow .......         0.093         0.929
  Groundwater Inflow .......         0.000         0.000
  RDII Inflow ..............         0.000         0.000
  External Inflow ..........         0.000         0.000
  External Outflow .........         0.092         0.916
  Flooding Loss ............         0.000         0.000
  Evaporation Loss .........         0.000         0.000
  Exfiltration Loss ........         0.000         0.000
  Initial Stored Volume ....         0.000         0.000
  Final Stored Volume ......         0.001         0.006
  Continuity Error (%) .....         0.778
  
  
  ********************************
  Highest Flow Instability Indexes
  ********************************
  All links are stable.
  
  
  *************************
  Routing Time Step Summary
  *************************
  Minimum Time Step           :    60.00 sec
  Average Time Step           :    60.00 sec
  Maximum Time Step           :    60.00 sec
  Percent in Steady State     :     0.00
  Average Iterations per Step :     1.07
  Percent Not Converging      :     0.00
  
  
  ***************************
  Subcatchment Runoff Summary
  ***************************
  
  ------------------------------------------------------------------------------------------------------------------------------
                            Total      Total      Total      Total     Imperv       Perv      Total       Total     Peak  Runoff
                           Precip      Runon       Evap      Infil     Runoff     Runoff     Runoff      Runoff   Runoff   Coeff
  Subcatchment                 mm         mm         mm         mm         mm         mm         mm    10^6 ltr      CMS
  ------------------------------------------------------------------------------------------------------------------------------
  S1                         9.89       0.00       0.00       0.74       8.53       0.48       9.01        0.36     0.11   0.911
  S2                         9.89       0.00       0.00       3.46       1.53       4.90       6.42        0.26     0.07   0.649
  S3                         9.89       0.00       0.00       1.50       7.51       0.79       7.80        0.31     0.11   0.789
  

  ***********************
  LID Performance Summary
  ***********************

  --------------------------------------------------------------------------------------------------------------------
                                         Total      Evap     Infil   Surface    Drain    Initial     Final  Continuity
                                        Inflow      Loss      Loss   Outflow   Outflow   Storage   Storage       Error
  Subcatchment      LID Control             mm        mm        mm        mm        mm        mm        mm           %
  --------------------------------------------------------------------------------------------------------------------
  S3                rb                 4513.81      0.00      0.00   3513.81      0.00      0.00   1000.00        0.00
  
  ******************
  Node Depth Summary
  ******************
  
  ---------------------------------------------------------------------------------
                                 Average  Maximum  Maximum  Time of Max    Reported
                                   Depth    Depth      HGL   Occurrence   Max Depth
  Node                 Type       Meters   Meters   Meters  days hr:min      Meters
  ---------------------------------------------------------------------------------
  J3                   JUNCTION     0.01     0.05    93.05     0  12:54        0.05
  J1                   JUNCTION     0.01     0.09    96.09     0  12:54        0.09
  J4                   JUNCTION     0.04     0.25    88.25     0  13:03        0.24
  J2                   JUNCTION     0.04     0.25    90.25     0  13:00        0.25
  OUT1                 OUTFALL      0.03     0.20    85.20     0  13:04        0.20
  
  
  *******************
  Node Inflow Summary
  *******************
  
  -------------------------------------------------------------------------------------------------
                                  Maximum  Maximum                  Lateral       Total        Flow
                                  Lateral    Total  Time of Max      Inflow      Inflow     Balance
                                   Inflow   Inflow   Occurrence      Volume      Volume       Error
  Node                 Type           CMS      CMS  days hr:min    10^6 ltr    10^6 ltr     Percent
  -------------------------------------------------------------------------------------------------
  J3                   JUNCTION     0.109    0.109     0  12:54       0.312       0.312       0.000
  J1                   JUNCTION     0.108    0.108     0  12:54        0.36        0.36      -0.000
  J4                   JUNCTION     0.000    0.273     0  13:01           0       0.923       0.000
  J2                   JUNCTION     0.073    0.178     0  13:00       0.257       0.617       0.000
  OUT1                 OUTFALL      0.000    0.266     0  13:04           0       0.916       0.000
  
  
  *********************
  Node Flooding Summary
  *********************
  
  No nodes were flooded.
  
  
  ***********************
  Outfall Loading Summary
  ***********************
  
  -----------------------------------------------------------
                         Flow       Avg       Max       Total
                         Freq      Flow      Flow      Volume
  Outfall Node           Pcnt       CMS       CMS    10^6 ltr
  -----------------------------------------------------------
  OUT1                  90.63     0.012     0.266       0.916
  -----------------------------------------------------------
  System                90.63     0.012     0.266       0.916
  
  
  ********************
  Link Flow Summary
  ********************
  
  -----------------------------------------------------------------------------
                                 Maximum  Time of Max   Maximum    Max/    Max/
                                  |Flow|   Occurrence   |Veloc|    Full    Full
  Link                 Type          CMS  days hr:min     m/sec    Flow   Depth
  -----------------------------------------------------------------------------
  C3                   CONDUIT     0.108     0  12:55      6.20    0.00    0.03
  C4                   CONDUIT     0.266     0  13:04      1.63    0.02    0.10
  C2                   CONDUIT     0.175     0  13:03      1.21    0.14    0.25
  C1                   CONDUIT     0.107     0  12:57      3.32    0.02    0.09
  
  
  *************************
  Conduit Surcharge Summary
  *************************
  
  No conduits were surcharged.
  
  
  ********************
  Subcatchment Results
  ********************
  
  <<< Subcatchment S1 >>>
  ---------------------------------------------------
  Date        Time        Precip.    Losses    Runoff
                            mm/hr     mm/hr       CMS
  ---------------------------------------------------
   01/01/2000 00:05:00      0.000     0.000    0.0000
   01/01/2000 00:10:00      0.000     0.000    0.0000
   01/01/2000 00:15:00      0.000     0.000    0.0000
   01/01/2000 00:20:00      0.000     0.000    0.0000
   01/01/2000 00:25:00      0.000     0.000    0.0000
   01/01/2000 00:30:00      0.000     0.000    0.0000
   01/01/2000 00:35:00      0.000     0.000    0.0000
   01/01/2000 00:40:00      0.000     0.000    0.0000
   01/01/2000 00:45:00      0.000     0.000    0.0000
   01/01/2000 00:50:00      0.000     0.000    0.0000
   01/01/2000 00:55:00      0.000     0.000    0.0000
   01/01/2000 01:00:00      0.101     0.000    0.0000
   01/01/2000 01:05:00      0.101     0.012    0.0000
   01/01/2000 01:10:00      0.101     0.012    0.0000
   01/01/2000 01:15:00      0.103     0.013    0.0000
   01/01/2000 01:20:00      0.103     0.013    0.0000
   01/01/2000 01:25:00      0.105     0.013    0.0000
   01/01/2000 01:30:00      0.105     0.013    0.0000
   01/01/2000 01:35:00      0.105     0.013    0.0000
   01/01/2000 01:40:00      0.107     0.013    0.0000
   01/01/2000 01:45:00      0.107     0.013    0.0000
   01/01/2000 01:50:00      0.109     0.013    0.0000
   01/01/2000 01:55:00      0.109     0.013    0.0000
   01/01/2000 02:00:00      0.111     0.014    0.0000
   01/01/2000 02:05:00      0.111     0.014    0.0000
   01/01/2000 02:10:00      0.111     0.014    0.0000
   01/01/2000 02:15:00      0.113     0.014    0.0003
   01/01/2000 02:20:00      0.113     0.014    0.0004
   01/01/2000 02:25:00      0.115     0.014    0.0004
   01/01/2000 02:30:00      0.115     0.014    0.0005
   01/01/2000 02:35:00      0.115     0.014    0.0005
   01/01/2000 02:40:00      0.117     0.014    0.0006
   01/01/2000 02:45:00      0.117     0.014    0.0006
   01/01/2000 02:50:00      0.119     0.015    0.0007
   01/01/2000 02:55:00      0.119     0.015    0.0007
   01/01/2000 03:00:00      0.121     0.015    0.0008
   01/01/2000 03:05:00      0.121     0.015    0.0008
   01/01/2000 03:10:00      0.121     0.015    0.0008
   01/01/2000 03:15:00      0.123     0.015    0.0009
   01/01/2000 03:20:00      0.123     0.015    0.0009
   01/01/2000 03:25:00      0.125     0.015    0.0009
   01/01/2000 03:30:00      0.125     0.015    0.0010
   01/01/2000 03:35:00      0.125     0.015    0.0010
   01/01/2000 03:40:00      0.127     0.016    0.0010
   01/01/2000 03:45:00      0.127     0.016    0.0010
   01/01/2000 03:50:00      0.129     0.016    0.0011
   01/01/2000 03:55:00      0.129     0.016    0.0011
   01/01/2000 04:00:00      0.131     0.016    0.0011
   01/01/2000 04:05:00      0.131     0.016    0.0011
   01/01/2000 04:10:00      0.131     0.016    0.0011
   01/01/2000 04:15:00      0.133     0.016    0.0012
   01/01/2000 04:20:00      0.133     0.016    0.0012
   01/01/2000 04:25:00      0.135     0.017    0.0012
   01/01/2000 04:30:00      0.135     0.017    0.0012
   01/01/2000 04:35:00      0.135     0.017    0.0012
   01/01/2000 04:40:00      0.137     0.017    0.0012
   01/01/2000 04:45:00      0.137     0.017    0.0012
   01/01/2000 04:50:00      0.139     0.017    0.0012
   01/01/2000 04:55:00      0.139     0.017    0.0013
   01/01/2000 05:00:00      0.141     0.017    0.0013
   01/01/2000 05:05:00      0.141     0.017    0.0013
   01/01/2000 05:10:00      0.143     0.018    0.0013
   01/01/2000 05:15:00      0.145     0.018    0.0013
   01/01/2000 05:20:00      0.147     0.018    0.0013
   01/01/2000 05:25:00      0.149     0.018    0.0013
   01/01/2000 05:30:00      0.151     0.018    0.0013
   01/01/2000 05:35:00      0.153     0.019    0.0014
   01/01/2000 05:40:00      0.153     0.019    0.0014
   01/01/2000 05:45:00      0.155     0.019    0.0014
   01/01/2000 05:50:00      0.157     0.019    0.0014
   01/01/2000 05:55:00      0.159     0.020    0.0014
   01/01/2000 06:00:00      0.161     0.020    0.0014
   01/01/2000 06:05:00      0.163     0.020    0.0015
   01/01/2000 06:10:00      0.163     0.020    0.0015
   01/01/2000 06:15:00      0.165     0.020    0.0015
   01/01/2000 06:20:00      0.167     0.021    0.0015
   01/01/2000 06:25:00      0.169     0.021    0.0015
   01/01/2000 06:30:00      0.171     0.021    0.0015
   01/01/2000 06:35:00      0.173     0.021    0.0016
   01/01/2000 06:40:00      0.173     0.021    0.0016
   01/01/2000 06:45:00      0.175     0.021    0.0016
   01/01/2000 06:50:00      0.177     0.022    0.0016
   01/01/2000 06:55:00      0.179     0.022    0.0016
   01/01/2000 07:00:00      0.181     0.022    0.0016
   01/01/2000 07:05:00      0.183     0.022    0.0017
   01/01/2000 07:10:00      0.183     0.022    0.0017
   01/01/2000 07:15:00      0.185     0.023    0.0017
   01/01/2000 07:20:00      0.187     0.023    0.0017
   01/01/2000 07:25:00      0.189     0.023    0.0017
   01/01/2000 07:30:00      0.191     0.023    0.0017
   01/01/2000 07:35:00      0.193     0.023    0.0018
   01/01/2000 07:40:00      0.193     0.024    0.0018
   01/01/2000 07:45:00      0.195     0.024    0.0018
   01/01/2000 07:50:00      0.197     0.024    0.0018
   01/01/2000 07:55:00      0.199     0.024    0.0018
   01/01/2000 08:00:00      0.201     0.025    0.0018
   01/01/2000 08:05:00      0.203     0.025    0.0019
   01/01/2000 08:10:00      0.203     0.025    0.0019
   01/01/2000 08:15:00      0.205     0.025    0.0019
   01/01/2000 08:20:00      0.207     0.025    0.0019
   01/01/2000 08:25:00      0.209     0.026    0.0019
   01/01/2000 08:30:00      0.211     0.026    0.0019
   01/01/2000 08:35:00      0.213     0.026    0.0020
   01/01/2000 08:40:00      0.213     0.026    0.0020
   01/01/2000 08:45:00      0.215     0.026    0.0020
   01/01/2000 08:50:00      0.217     0.027    0.0020
   01/01/2000 08:55:00      0.219     0.027    0.0020
   01/01/2000 09:00:00      0.225     0.028    0.0020
   01/01/2000 09:05:00      0.235     0.028    0.0021
   01/01/2000 09:10:00      0.235     0.029    0.0021
   01/01/2000 09:15:00      0.245     0.030    0.0021
   01/01/2000 09:20:00      0.255     0.031    0.0022
   01/01/2000 09:25:00      0.265     0.033    0.0022
   01/01/2000 09:30:00      0.275     0.034    0.0023
   01/01/2000 09:35:00      0.285     0.034    0.0023
   01/01/2000 09:40:00      0.285     0.035    0.0024
   01/01/2000 09:45:00      0.295     0.036    0.0025
   01/01/2000 09:50:00      0.305     0.037    0.0025
   01/01/2000 09:55:00      0.315     0.039    0.0026
   01/01/2000 10:00:00      0.320     0.039    0.0027
   01/01/2000 10:05:00      0.320     0.039    0.0027
   01/01/2000 10:10:00      0.320     0.039    0.0028
   01/01/2000 10:15:00      0.320     0.039    0.0028
   01/01/2000 10:20:00      0.320     0.039    0.0029
   01/01/2000 10:25:00      0.320     0.039    0.0029
   01/01/2000 10:30:00      0.328     0.040    0.0030
   01/01/2000 10:35:00      0.344     0.040    0.0030
   01/01/2000 10:40:00      0.344     0.042    0.0031
   01/01/2000 10:45:00      0.360     0.044    0.0031
   01/01/2000 10:50:00      0.376     0.046    0.0032
   01/01/2000 10:55:00      0.392     0.048    0.0033
   01/01/2000 11:00:00      0.412     0.051    0.0034
   01/01/2000 11:05:00      0.436     0.051    0.0035
   01/01/2000 11:10:00      0.436     0.054    0.0036
   01/01/2000 11:15:00      0.460     0.056    0.0037
   01/01/2000 11:20:00      0.484     0.059    0.0039
   01/01/2000 11:25:00      0.508     0.062    0.0041
   01/01/2000 11:30:00      0.540     0.066    0.0042
   01/01/2000 11:35:00      0.580     0.066    0.0044
   01/01/2000 11:40:00      0.580     0.071    0.0046
   01/01/2000 11:45:00      0.620     0.076    0.0049
   01/01/2000 11:50:00      0.660     0.081    0.0051
   01/01/2000 11:55:00      0.700     0.086    0.0054
   01/01/2000 12:00:00      0.768     0.094    0.0057
   01/01/2000 12:05:00      0.864     0.094    0.0061
   01/01/2000 12:10:00      0.864     0.094    0.0066
   01/01/2000 12:15:00      0.960     0.093    0.0071
   01/01/2000 12:20:00      1.056     0.092    0.0078
   01/01/2000 12:25:00      1.152     0.092    0.0086
   01/01/2000 12:30:00      2.384     0.091    0.0102
   01/01/2000 12:35:00      4.752     0.091    0.0149
   01/01/2000 12:40:00      4.752     0.091    0.0272
   01/01/2000 12:45:00      7.643     0.092    0.0465
   01/01/2000 12:50:00     13.707     0.093    0.0816
   01/01/2000 12:55:00      9.514     0.094    0.1068
   01/01/2000 13:00:00      1.896     0.092    0.0961
   01/01/2000 13:05:00      1.668     0.092    0.0567
   01/01/2000 13:10:00      1.668     0.088    0.0416
   01/01/2000 13:15:00      1.440     0.087    0.0320
   01/01/2000 13:20:00      1.212     0.086    0.0256
   01/01/2000 13:25:00      0.984     0.085    0.0210
   01/01/2000 13:30:00      0.844     0.085    0.0174
   01/01/2000 13:35:00      0.792     0.085    0.0148
   01/01/2000 13:40:00      0.792     0.084    0.0129
   01/01/2000 13:45:00      0.740     0.083    0.0115
   01/01/2000 13:50:00      0.688     0.083    0.0104
   01/01/2000 13:55:00      0.636     0.082    0.0094
   01/01/2000 14:00:00      0.596     0.082    0.0086
   01/01/2000 14:05:00      0.568     0.082    0.0080
   01/01/2000 14:10:00      0.568     0.081    0.0074
   01/01/2000 14:15:00      0.540     0.081    0.0070
   01/01/2000 14:20:00      0.512     0.063    0.0066
   01/01/2000 14:25:00      0.484     0.059    0.0062
   01/01/2000 14:30:00      0.460     0.056    0.0059
   01/01/2000 14:35:00      0.440     0.056    0.0056
   01/01/2000 14:40:00      0.440     0.054    0.0054
   01/01/2000 14:45:00      0.420     0.052    0.0051
   01/01/2000 14:50:00      0.400     0.049    0.0049
   01/01/2000 14:55:00      0.380     0.047    0.0047
   01/01/2000 15:00:00      0.367     0.045    0.0045
   01/01/2000 15:05:00      0.359     0.045    0.0043
   01/01/2000 15:10:00      0.359     0.044    0.0042
   01/01/2000 15:15:00      0.353     0.043    0.0041
   01/01/2000 15:20:00      0.345     0.042    0.0040
   01/01/2000 15:25:00      0.339     0.042    0.0038
   01/01/2000 15:30:00      0.331     0.041    0.0037
   01/01/2000 15:35:00      0.325     0.041    0.0037
   01/01/2000 15:40:00      0.325     0.040    0.0036
   01/01/2000 15:45:00      0.317     0.039    0.0035
   01/01/2000 15:50:00      0.311     0.038    0.0034
   01/01/2000 15:55:00      0.303     0.037    0.0034
   01/01/2000 16:00:00      0.297     0.036    0.0033
   01/01/2000 16:05:00      0.289     0.036    0.0032
   01/01/2000 16:10:00      0.289     0.035    0.0032
   01/01/2000 16:15:00      0.283     0.035    0.0031
   01/01/2000 16:20:00      0.275     0.034    0.0030
   01/01/2000 16:25:00      0.269     0.033    0.0030
   01/01/2000 16:30:00      0.261     0.032    0.0029
   01/01/2000 16:35:00      0.255     0.032    0.0029
   01/01/2000 16:40:00      0.255     0.031    0.0028
   01/01/2000 16:45:00      0.247     0.030    0.0027
   01/01/2000 16:50:00      0.241     0.030    0.0027
   01/01/2000 16:55:00      0.233     0.029    0.0026
   01/01/2000 17:00:00      0.229     0.028    0.0026
   01/01/2000 17:05:00      0.226     0.028    0.0025
   01/01/2000 17:10:00      0.226     0.028    0.0025
   01/01/2000 17:15:00      0.224     0.028    0.0024
   01/01/2000 17:20:00      0.221     0.027    0.0024
   01/01/2000 17:25:00      0.219     0.027    0.0024
   01/01/2000 17:30:00      0.216     0.027    0.0023
   01/01/2000 17:35:00      0.214     0.027    0.0023
   01/01/2000 17:40:00      0.214     0.026    0.0023
   01/01/2000 17:45:00      0.211     0.026    0.0022
   01/01/2000 17:50:00      0.209     0.026    0.0022
   01/01/2000 17:55:00      0.206     0.025    0.0022
   01/01/2000 18:00:00      0.204     0.025    0.0022
   01/01/2000 18:05:00      0.201     0.025    0.0021
   01/01/2000 18:10:00      0.201     0.025    0.0021
   01/01/2000 18:15:00      0.199     0.024    0.0021
   01/01/2000 18:20:00      0.196     0.024    0.0021
   01/01/2000 18:25:00      0.194     0.024    0.0020
   01/01/2000 18:30:00      0.191     0.023    0.0020
   01/01/2000 18:35:00      0.189     0.023    0.0020
   01/01/2000 18:40:00      0.189     0.023    0.0020
   01/01/2000 18:45:00      0.186     0.023    0.0020
   01/01/2000 18:50:00      0.184     0.023    0.0019
   01/01/2000 18:55:00      0.181     0.022    0.0019
   01/01/2000 19:00:00      0.179     0.022    0.0019
   01/01/2000 19:05:00      0.176     0.022    0.0019
   01/01/2000 19:10:00      0.176     0.022    0.0019
   01/01/2000 19:15:00      0.174     0.021    0.0018
   01/01/2000 19:20:00      0.171     0.021    0.0018
   01/01/2000 19:25:00      0.169     0.021    0.0018
   01/01/2000 19:30:00      0.166     0.020    0.0018
   01/01/2000 19:35:00      0.164     0.020    0.0018
   01/01/2000 19:40:00      0.164     0.020    0.0017
   01/01/2000 19:45:00      0.161     0.020    0.0017
   01/01/2000 19:50:00      0.159     0.020    0.0017
   01/01/2000 19:55:00      0.156     0.019    0.0017
   01/01/2000 20:00:00      0.154     0.019    0.0017
   01/01/2000 20:05:00      0.154     0.019    0.0016
   01/01/2000 20:10:00      0.151     0.019    0.0016
   01/01/2000 20:15:00      0.149     0.018    0.0016
   01/01/2000 20:20:00      0.146     0.018    0.0016
   01/01/2000 20:25:00      0.144     0.018    0.0016
   01/01/2000 20:30:00      0.141     0.018    0.0015
   01/01/2000 20:35:00      0.141     0.017    0.0015
   01/01/2000 20:40:00      0.139     0.017    0.0015
   01/01/2000 20:45:00      0.136     0.017    0.0015
   01/01/2000 20:50:00      0.134     0.016    0.0015
   01/01/2000 20:55:00      0.131     0.016    0.0014
   01/01/2000 21:00:00      0.130     0.016    0.0014
   01/01/2000 21:05:00      0.130     0.016    0.0014
   01/01/2000 21:10:00      0.129     0.016    0.0014
   01/01/2000 21:15:00      0.129     0.016    0.0014
   01/01/2000 21:20:00      0.128     0.016    0.0014
   01/01/2000 21:25:00      0.128     0.016    0.0013
   01/01/2000 21:30:00      0.127     0.016    0.0013
   01/01/2000 21:35:00      0.127     0.016    0.0013
   01/01/2000 21:40:00      0.127     0.016    0.0013
   01/01/2000 21:45:00      0.126     0.015    0.0013
   01/01/2000 21:50:00      0.126     0.015    0.0013
   01/01/2000 21:55:00      0.125     0.015    0.0013
   01/01/2000 22:00:00      0.125     0.015    0.0013
   01/01/2000 22:05:00      0.125     0.015    0.0013
   01/01/2000 22:10:00      0.124     0.015    0.0013
   01/01/2000 22:15:00      0.124     0.015    0.0013
   01/01/2000 22:20:00      0.123     0.015    0.0013
   01/01/2000 22:25:00      0.123     0.015    0.0012
   01/01/2000 22:30:00      0.122     0.015    0.0012
   01/01/2000 22:35:00      0.122     0.015    0.0012
   01/01/2000 22:40:00      0.122     0.015    0.0012
   01/01/2000 22:45:00      0.121     0.015    0.0012
   01/01/2000 22:50:00      0.121     0.015    0.0012
   01/01/2000 22:55:00      0.120     0.015    0.0012
   01/01/2000 23:00:00      0.120     0.015    0.0012
   01/01/2000 23:05:00      0.120     0.015    0.0012
   01/01/2000 23:10:00      0.119     0.015    0.0012
   01/01/2000 23:15:00      0.119     0.015    0.0012
   01/01/2000 23:20:00      0.118     0.014    0.0012
   01/01/2000 23:25:00      0.118     0.014    0.0012
   01/01/2000 23:30:00      0.117     0.014    0.0012
   01/01/2000 23:35:00      0.117     0.014    0.0012
   01/01/2000 23:40:00      0.117     0.014    0.0012
   01/01/2000 23:45:00      0.116     0.014    0.0012
   01/01/2000 23:50:00      0.116     0.014    0.0012
   01/01/2000 23:55:00      0.115     0.014    0.0012
   01/02/2000 00:00:00      0.115     0.014    0.0012
  
  
  <<< Subcatchment S2 >>>
  ---------------------------------------------------
  Date        Time        Precip.    Losses    Runoff
                            mm/hr     mm/hr       CMS
  ---------------------------------------------------
   01/01/2000 00:05:00      0.000     0.000    0.0000
   01/01/2000 00:10:00      0.000     0.000    0.0000
   01/01/2000 00:15:00      0.000     0.000    0.0000
   01/01/2000 00:20:00      0.000     0.000    0.0000
   01/01/2000 00:25:00      0.000     0.000    0.0000
   01/01/2000 00:30:00      0.000     0.000    0.0000
   01/01/2000 00:35:00      0.000     0.000    0.0000
   01/01/2000 00:40:00      0.000     0.000    0.0000
   01/01/2000 00:45:00      0.000     0.000    0.0000
   01/01/2000 00:50:00      0.000     0.000    0.0000
   01/01/2000 00:55:00      0.000     0.000    0.0000
   01/01/2000 01:00:00      0.101     0.000    0.0000
   01/01/2000 01:05:00      0.101     0.085    0.0000
   01/01/2000 01:10:00      0.101     0.085    0.0000
   01/01/2000 01:15:00      0.103     0.087    0.0000
   01/01/2000 01:20:00      0.103     0.087    0.0000
   01/01/2000 01:25:00      0.105     0.089    0.0000
   01/01/2000 01:30:00      0.105     0.089    0.0000
   01/01/2000 01:35:00      0.105     0.089    0.0000
   01/01/2000 01:40:00      0.107     0.090    0.0000
   01/01/2000 01:45:00      0.107     0.090    0.0000
   01/01/2000 01:50:00      0.109     0.092    0.0000
   01/01/2000 01:55:00      0.109     0.092    0.0000
   01/01/2000 02:00:00      0.111     0.094    0.0000
   01/01/2000 02:05:00      0.111     0.094    0.0000
   01/01/2000 02:10:00      0.111     0.094    0.0000
   01/01/2000 02:15:00      0.113     0.095    0.0000
   01/01/2000 02:20:00      0.113     0.095    0.0000
   01/01/2000 02:25:00      0.115     0.097    0.0000
   01/01/2000 02:30:00      0.115     0.097    0.0000
   01/01/2000 02:35:00      0.115     0.097    0.0000
   01/01/2000 02:40:00      0.117     0.099    0.0000
   01/01/2000 02:45:00      0.117     0.099    0.0000
   01/01/2000 02:50:00      0.119     0.101    0.0000
   01/01/2000 02:55:00      0.119     0.101    0.0000
   01/01/2000 03:00:00      0.121     0.101    0.0000
   01/01/2000 03:05:00      0.121     0.102    0.0000
   01/01/2000 03:10:00      0.121     0.102    0.0000
   01/01/2000 03:15:00      0.123     0.104    0.0000
   01/01/2000 03:20:00      0.123     0.104    0.0000
   01/01/2000 03:25:00      0.125     0.106    0.0000
   01/01/2000 03:30:00      0.125     0.106    0.0000
   01/01/2000 03:35:00      0.125     0.106    0.0000
   01/01/2000 03:40:00      0.127     0.107    0.0000
   01/01/2000 03:45:00      0.127     0.107    0.0000
   01/01/2000 03:50:00      0.129     0.109    0.0000
   01/01/2000 03:55:00      0.129     0.109    0.0000
   01/01/2000 04:00:00      0.131     0.109    0.0000
   01/01/2000 04:05:00      0.131     0.111    0.0000
   01/01/2000 04:10:00      0.131     0.111    0.0000
   01/01/2000 04:15:00      0.133     0.112    0.0000
   01/01/2000 04:20:00      0.133     0.112    0.0000
   01/01/2000 04:25:00      0.135     0.114    0.0000
   01/01/2000 04:30:00      0.135     0.114    0.0000
   01/01/2000 04:35:00      0.135     0.114    0.0000
   01/01/2000 04:40:00      0.137     0.116    0.0000
   01/01/2000 04:45:00      0.137     0.116    0.0000
   01/01/2000 04:50:00      0.139     0.117    0.0000
   01/01/2000 04:55:00      0.139     0.117    0.0000
   01/01/2000 05:00:00      0.141     0.117    0.0000
   01/01/2000 05:05:00      0.141     0.119    0.0000
   01/01/2000 05:10:00      0.143     0.121    0.0000
   01/01/2000 05:15:00      0.145     0.122    0.0000
   01/01/2000 05:20:00      0.147     0.124    0.0000
   01/01/2000 05:25:00      0.149     0.126    0.0000
   01/01/2000 05:30:00      0.151     0.126    0.0000
   01/01/2000 05:35:00      0.153     0.128    0.0000
   01/01/2000 05:40:00      0.153     0.129    0.0000
   01/01/2000 05:45:00      0.155     0.131    0.0000
   01/01/2000 05:50:00      0.157     0.133    0.0000
   01/01/2000 05:55:00      0.159     0.134    0.0000
   01/01/2000 06:00:00      0.161     0.136    0.0000
   01/01/2000 06:05:00      0.163     0.136    0.0000
   01/01/2000 06:10:00      0.163     0.138    0.0000
   01/01/2000 06:15:00      0.165     0.139    0.0000
   01/01/2000 06:20:00      0.167     0.141    0.0000
   01/01/2000 06:25:00      0.169     0.143    0.0000
   01/01/2000 06:30:00      0.171     0.144    0.0003
   01/01/2000 06:35:00      0.173     0.144    0.0003
   01/01/2000 06:40:00      0.173     0.146    0.0003
   01/01/2000 06:45:00      0.175     0.148    0.0003
   01/01/2000 06:50:00      0.177     0.149    0.0003
   01/01/2000 06:55:00      0.179     0.151    0.0003
   01/01/2000 07:00:00      0.181     0.153    0.0003
   01/01/2000 07:05:00      0.183     0.153    0.0003
   01/01/2000 07:10:00      0.183     0.155    0.0003
   01/01/2000 07:15:00      0.185     0.156    0.0003
   01/01/2000 07:20:00      0.187     0.158    0.0003
   01/01/2000 07:25:00      0.189     0.160    0.0003
   01/01/2000 07:30:00      0.191     0.161    0.0003
   01/01/2000 07:35:00      0.193     0.161    0.0003
   01/01/2000 07:40:00      0.193     0.163    0.0003
   01/01/2000 07:45:00      0.195     0.165    0.0003
   01/01/2000 07:50:00      0.197     0.166    0.0003
   01/01/2000 07:55:00      0.199     0.168    0.0003
   01/01/2000 08:00:00      0.201     0.170    0.0003
   01/01/2000 08:05:00      0.203     0.170    0.0003
   01/01/2000 08:10:00      0.203     0.171    0.0003
   01/01/2000 08:15:00      0.205     0.173    0.0003
   01/01/2000 08:20:00      0.207     0.175    0.0003
   01/01/2000 08:25:00      0.209     0.177    0.0004
   01/01/2000 08:30:00      0.211     0.178    0.0004
   01/01/2000 08:35:00      0.213     0.178    0.0004
   01/01/2000 08:40:00      0.213     0.180    0.0004
   01/01/2000 08:45:00      0.215     0.182    0.0004
   01/01/2000 08:50:00      0.217     0.183    0.0004
   01/01/2000 08:55:00      0.219     0.185    0.0004
   01/01/2000 09:00:00      0.225     0.190    0.0004
   01/01/2000 09:05:00      0.235     0.190    0.0004
   01/01/2000 09:10:00      0.235     0.198    0.0004
   01/01/2000 09:15:00      0.245     0.207    0.0004
   01/01/2000 09:20:00      0.255     0.215    0.0004
   01/01/2000 09:25:00      0.265     0.221    0.0004
   01/01/2000 09:30:00      0.275     0.219    0.0004
   01/01/2000 09:35:00      0.285     0.219    0.0004
   01/01/2000 09:40:00      0.285     0.216    0.0005
   01/01/2000 09:45:00      0.295     0.214    0.0005
   01/01/2000 09:50:00      0.305     0.211    0.0005
   01/01/2000 09:55:00      0.315     0.209    0.0005
   01/01/2000 10:00:00      0.320     0.207    0.0005
   01/01/2000 10:05:00      0.320     0.207    0.0005
   01/01/2000 10:10:00      0.320     0.206    0.0005
   01/01/2000 10:15:00      0.320     0.204    0.0006
   01/01/2000 10:20:00      0.320     0.202    0.0006
   01/01/2000 10:25:00      0.320     0.201    0.0006
   01/01/2000 10:30:00      0.328     0.199    0.0006
   01/01/2000 10:35:00      0.344     0.199    0.0006
   01/01/2000 10:40:00      0.344     0.198    0.0006
   01/01/2000 10:45:00      0.360     0.196    0.0007
   01/01/2000 10:50:00      0.376     0.195    0.0007
   01/01/2000 10:55:00      0.392     0.194    0.0008
   01/01/2000 11:00:00      0.412     0.193    0.0008
   01/01/2000 11:05:00      0.436     0.193    0.0009
   01/01/2000 11:10:00      0.436     0.192    0.0010
   01/01/2000 11:15:00      0.460     0.191    0.0011
   01/01/2000 11:20:00      0.484     0.190    0.0012
   01/01/2000 11:25:00      0.508     0.189    0.0013
   01/01/2000 11:30:00      0.540     0.188    0.0014
   01/01/2000 11:35:00      0.580     0.188    0.0015
   01/01/2000 11:40:00      0.580     0.188    0.0017
   01/01/2000 11:45:00      0.620     0.187    0.0019
   01/01/2000 11:50:00      0.660     0.187    0.0021
   01/01/2000 11:55:00      0.700     0.186    0.0024
   01/01/2000 12:00:00      0.768     0.186    0.0026
   01/01/2000 12:05:00      0.864     0.186    0.0029
   01/01/2000 12:10:00      0.864     0.186    0.0033
   01/01/2000 12:15:00      0.960     0.186    0.0038
   01/01/2000 12:20:00      1.056     0.186    0.0043
   01/01/2000 12:25:00      1.152     0.186    0.0049
   01/01/2000 12:30:00      2.384     0.186    0.0059
   01/01/2000 12:35:00      4.752     0.186    0.0085
   01/01/2000 12:40:00      4.752     0.189    0.0154
   01/01/2000 12:45:00      7.643     0.196    0.0271
   01/01/2000 12:50:00     13.707     0.208    0.0492
   01/01/2000 12:55:00      9.514     0.229    0.0685
   01/01/2000 13:00:00      1.896     0.236    0.0695
   01/01/2000 13:05:00      1.668     0.236    0.0517
   01/01/2000 13:10:00      1.668     0.226    0.0431
   01/01/2000 13:15:00      1.440     0.218    0.0366
   01/01/2000 13:20:00      1.212     0.211    0.0316
   01/01/2000 13:25:00      0.984     0.205    0.0274
   01/01/2000 13:30:00      0.844     0.200    0.0239
   01/01/2000 13:35:00      0.792     0.200    0.0209
   01/01/2000 13:40:00      0.792     0.195    0.0186
   01/01/2000 13:45:00      0.740     0.192    0.0167
   01/01/2000 13:50:00      0.688     0.188    0.0151
   01/01/2000 13:55:00      0.636     0.185    0.0136
   01/01/2000 14:00:00      0.596     0.183    0.0124
   01/01/2000 14:05:00      0.568     0.183    0.0113
   01/01/2000 14:10:00      0.568     0.180    0.0104
   01/01/2000 14:15:00      0.540     0.178    0.0096
   01/01/2000 14:20:00      0.512     0.176    0.0089
   01/01/2000 14:25:00      0.484     0.174    0.0083
   01/01/2000 14:30:00      0.460     0.172    0.0077
   01/01/2000 14:35:00      0.440     0.172    0.0072
   01/01/2000 14:40:00      0.440     0.171    0.0067
   01/01/2000 14:45:00      0.420     0.169    0.0063
   01/01/2000 14:50:00      0.400     0.168    0.0059
   01/01/2000 14:55:00      0.380     0.167    0.0056
   01/01/2000 15:00:00      0.367     0.165    0.0053
   01/01/2000 15:05:00      0.359     0.165    0.0050
   01/01/2000 15:10:00      0.359     0.164    0.0047
   01/01/2000 15:15:00      0.353     0.163    0.0045
   01/01/2000 15:20:00      0.345     0.162    0.0042
   01/01/2000 15:25:00      0.339     0.161    0.0040
   01/01/2000 15:30:00      0.331     0.160    0.0039
   01/01/2000 15:35:00      0.325     0.160    0.0037
   01/01/2000 15:40:00      0.325     0.159    0.0035
   01/01/2000 15:45:00      0.317     0.158    0.0034
   01/01/2000 15:50:00      0.311     0.158    0.0033
   01/01/2000 15:55:00      0.303     0.157    0.0031
   01/01/2000 16:00:00      0.297     0.156    0.0030
   01/01/2000 16:05:00      0.289     0.156    0.0029
   01/01/2000 16:10:00      0.289     0.155    0.0028
   01/01/2000 16:15:00      0.283     0.155    0.0027
   01/01/2000 16:20:00      0.275     0.154    0.0026
   01/01/2000 16:25:00      0.269     0.153    0.0025
   01/01/2000 16:30:00      0.261     0.153    0.0024
   01/01/2000 16:35:00      0.255     0.153    0.0023
   01/01/2000 16:40:00      0.255     0.152    0.0022
   01/01/2000 16:45:00      0.247     0.151    0.0021
   01/01/2000 16:50:00      0.241     0.151    0.0021
   01/01/2000 16:55:00      0.233     0.150    0.0020
   01/01/2000 17:00:00      0.229     0.150    0.0019
   01/01/2000 17:05:00      0.226     0.150    0.0018
   01/01/2000 17:10:00      0.226     0.149    0.0018
   01/01/2000 17:15:00      0.224     0.148    0.0017
   01/01/2000 17:20:00      0.221     0.148    0.0017
   01/01/2000 17:25:00      0.219     0.147    0.0016
   01/01/2000 17:30:00      0.216     0.147    0.0016
   01/01/2000 17:35:00      0.214     0.147    0.0015
   01/01/2000 17:40:00      0.214     0.146    0.0015
   01/01/2000 17:45:00      0.211     0.146    0.0014
   01/01/2000 17:50:00      0.209     0.145    0.0014
   01/01/2000 17:55:00      0.206     0.145    0.0014
   01/01/2000 18:00:00      0.204     0.145    0.0013
   01/01/2000 18:05:00      0.201     0.145    0.0013
   01/01/2000 18:10:00      0.201     0.144    0.0012
   01/01/2000 18:15:00      0.199     0.144    0.0012
   01/01/2000 18:20:00      0.196     0.143    0.0012
   01/01/2000 18:25:00      0.194     0.143    0.0011
   01/01/2000 18:30:00      0.191     0.142    0.0011
   01/01/2000 18:35:00      0.189     0.142    0.0011
   01/01/2000 18:40:00      0.189     0.142    0.0011
   01/01/2000 18:45:00      0.186     0.142    0.0010
   01/01/2000 18:50:00      0.184     0.141    0.0010
   01/01/2000 18:55:00      0.181     0.141    0.0010
   01/01/2000 19:00:00      0.179     0.141    0.0009
   01/01/2000 19:05:00      0.176     0.141    0.0009
   01/01/2000 19:10:00      0.176     0.140    0.0009
   01/01/2000 19:15:00      0.174     0.140    0.0009
   01/01/2000 19:20:00      0.171     0.139    0.0008
   01/01/2000 19:25:00      0.169     0.139    0.0008
   01/01/2000 19:30:00      0.166     0.139    0.0008
   01/01/2000 19:35:00      0.164     0.139    0.0008
   01/01/2000 19:40:00      0.164     0.138    0.0008
   01/01/2000 19:45:00      0.161     0.138    0.0007
   01/01/2000 19:50:00      0.159     0.138    0.0007
   01/01/2000 19:55:00      0.156     0.137    0.0007
   01/01/2000 20:00:00      0.154     0.137    0.0007
   01/01/2000 20:05:00      0.154     0.137    0.0007
   01/01/2000 20:10:00      0.151     0.137    0.0006
   01/01/2000 20:15:00      0.149     0.136    0.0006
   01/01/2000 20:20:00      0.146     0.136    0.0006
   01/01/2000 20:25:00      0.144     0.136    0.0006
   01/01/2000 20:30:00      0.141     0.136    0.0006
   01/01/2000 20:35:00      0.141     0.135    0.0005
   01/01/2000 20:40:00      0.139     0.135    0.0005
   01/01/2000 20:45:00      0.136     0.135    0.0005
   01/01/2000 20:50:00      0.134     0.135    0.0005
   01/01/2000 20:55:00      0.131     0.134    0.0005
   01/01/2000 21:00:00      0.130     0.134    0.0004
   01/01/2000 21:05:00      0.130     0.134    0.0004
   01/01/2000 21:10:00      0.129     0.134    0.0004
   01/01/2000 21:15:00      0.129     0.133    0.0004
   01/01/2000 21:20:00      0.128     0.133    0.0004
   01/01/2000 21:25:00      0.128     0.133    0.0004
   01/01/2000 21:30:00      0.127     0.133    0.0004
   01/01/2000 21:35:00      0.127     0.133    0.0004
   01/01/2000 21:40:00      0.127     0.132    0.0003
   01/01/2000 21:45:00      0.126     0.132    0.0003
   01/01/2000 21:50:00      0.126     0.132    0.0003
   01/01/2000 21:55:00      0.125     0.132    0.0003
   01/01/2000 22:00:00      0.125     0.132    0.0003
   01/01/2000 22:05:00      0.125     0.131    0.0003
   01/01/2000 22:10:00      0.124     0.131    0.0003
   01/01/2000 22:15:00      0.124     0.131    0.0000
   01/01/2000 22:20:00      0.123     0.131    0.0000
   01/01/2000 22:25:00      0.123     0.130    0.0000
   01/01/2000 22:30:00      0.122     0.130    0.0000
   01/01/2000 22:35:00      0.122     0.130    0.0000
   01/01/2000 22:40:00      0.122     0.130    0.0000
   01/01/2000 22:45:00      0.121     0.130    0.0000
   01/01/2000 22:50:00      0.121     0.129    0.0000
   01/01/2000 22:55:00      0.120     0.129    0.0000
   01/01/2000 23:00:00      0.120     0.129    0.0000
   01/01/2000 23:05:00      0.120     0.129    0.0000
   01/01/2000 23:10:00      0.119     0.129    0.0000
   01/01/2000 23:15:00      0.119     0.129    0.0000
   01/01/2000 23:20:00      0.118     0.128    0.0000
   01/01/2000 23:25:00      0.118     0.128    0.0000
   01/01/2000 23:30:00      0.117     0.128    0.0000
   01/01/2000 23:35:00      0.117     0.128    0.0000
   01/01/2000 23:40:00      0.117     0.128    0.0000
   01/01/2000 23:45:00      0.116     0.127    0.0000
   01/01/2000 23:50:00      0.116     0.127    0.0000
   01/01/2000 23:55:00      0.115     0.127    0.0000
   01/02/2000 00:00:00      0.115     0.127    0.0000
  
  
  <<< Subcatchment S3 >>>
  ---------------------------------------------------
  Date        Time        Precip.    Losses    Runoff
                            mm/hr     mm/hr       CMS
  ---------------------------------------------------
   01/01/2000 00:05:00      0.000     0.000    0.0000
   01/01/2000 00:10:00      0.000     0.000    0.0000
   01/01/2000 00:15:00      0.000     0.000    0.0000
   01/01/2000 00:20:00      0.000     0.000    0.0000
   01/01/2000 00:25:00      0.000     0.000    0.0000
   01/01/2000 00:30:00      0.000     0.000    0.0000
   01/01/2000 00:35:00      0.000     0.000    0.0000
   01/01/2000 00:40:00      0.000     0.000    0.0000
   01/01/2000 00:45:00      0.000     0.000    0.0000
   01/01/2000 00:50:00      0.000     0.000    0.0000
   01/01/2000 00:55:00      0.000     0.000    0.0000
   01/01/2000 01:00:00      0.101     0.000    0.0000
   01/01/2000 01:05:00      0.101     0.023    0.0000
   01/01/2000 01:10:00      0.101     0.023    0.0000
   01/01/2000 01:15:00      0.103     0.024    0.0000
   01/01/2000 01:20:00      0.103     0.024    0.0000
   01/01/2000 01:25:00      0.105     0.024    0.0000
   01/01/2000 01:30:00      0.105     0.024    0.0000
   01/01/2000 01:35:00      0.105     0.024    0.0000
   01/01/2000 01:40:00      0.107     0.025    0.0000
   01/01/2000 01:45:00      0.107     0.025    0.0000
   01/01/2000 01:50:00      0.109     0.025    0.0000
   01/01/2000 01:55:00      0.109     0.025    0.0000
   01/01/2000 02:00:00      0.111     0.026    0.0000
   01/01/2000 02:05:00      0.111     0.026    0.0000
   01/01/2000 02:10:00      0.111     0.026    0.0000
   01/01/2000 02:15:00      0.113     0.026    0.0000
   01/01/2000 02:20:00      0.113     0.026    0.0003
   01/01/2000 02:25:00      0.115     0.027    0.0003
   01/01/2000 02:30:00      0.115     0.027    0.0004
   01/01/2000 02:35:00      0.115     0.027    0.0004
   01/01/2000 02:40:00      0.117     0.027    0.0004
   01/01/2000 02:45:00      0.117     0.027    0.0005
   01/01/2000 02:50:00      0.119     0.027    0.0005
   01/01/2000 02:55:00      0.119     0.027    0.0005
   01/01/2000 03:00:00      0.121     0.027    0.0006
   01/01/2000 03:05:00      0.121     0.028    0.0006
   01/01/2000 03:10:00      0.121     0.028    0.0006
   01/01/2000 03:15:00      0.123     0.028    0.0006
   01/01/2000 03:20:00      0.123     0.028    0.0006
   01/01/2000 03:25:00      0.125     0.029    0.0006
   01/01/2000 03:30:00      0.125     0.029    0.0007
   01/01/2000 03:35:00      0.125     0.029    0.0007
   01/01/2000 03:40:00      0.127     0.029    0.0007
   01/01/2000 03:45:00      0.127     0.029    0.0007
   01/01/2000 03:50:00      0.129     0.030    0.0007
   01/01/2000 03:55:00      0.129     0.030    0.0007
   01/01/2000 04:00:00      0.131     0.030    0.0007
   01/01/2000 04:05:00      0.131     0.030    0.0007
   01/01/2000 04:10:00      0.131     0.030    0.0007
   01/01/2000 04:15:00      0.133     0.031    0.0007
   01/01/2000 04:20:00      0.133     0.031    0.0008
   01/01/2000 04:25:00      0.135     0.031    0.0008
   01/01/2000 04:30:00      0.135     0.031    0.0008
   01/01/2000 04:35:00      0.135     0.031    0.0008
   01/01/2000 04:40:00      0.137     0.032    0.0008
   01/01/2000 04:45:00      0.137     0.032    0.0008
   01/01/2000 04:50:00      0.139     0.032    0.0008
   01/01/2000 04:55:00      0.139     0.032    0.0008
   01/01/2000 05:00:00      0.141     0.032    0.0008
   01/01/2000 05:05:00      0.141     0.033    0.0008
   01/01/2000 05:10:00      0.143     0.033    0.0008
   01/01/2000 05:15:00      0.145     0.033    0.0008
   01/01/2000 05:20:00      0.147     0.034    0.0008
   01/01/2000 05:25:00      0.149     0.034    0.0008
   01/01/2000 05:30:00      0.151     0.034    0.0008
   01/01/2000 05:35:00      0.153     0.035    0.0009
   01/01/2000 05:40:00      0.153     0.035    0.0009
   01/01/2000 05:45:00      0.155     0.036    0.0009
   01/01/2000 05:50:00      0.157     0.036    0.0009
   01/01/2000 05:55:00      0.159     0.037    0.0009
   01/01/2000 06:00:00      0.161     0.037    0.0009
   01/01/2000 06:05:00      0.163     0.037    0.0009
   01/01/2000 06:10:00      0.163     0.038    0.0009
   01/01/2000 06:15:00      0.165     0.038    0.0009
   01/01/2000 06:20:00      0.167     0.039    0.0009
   01/01/2000 06:25:00      0.169     0.039    0.0009
   01/01/2000 06:30:00      0.171     0.039    0.0010
   01/01/2000 06:35:00      0.173     0.039    0.0010
   01/01/2000 06:40:00      0.173     0.040    0.0010
   01/01/2000 06:45:00      0.175     0.040    0.0010
   01/01/2000 06:50:00      0.177     0.041    0.0010
   01/01/2000 06:55:00      0.179     0.041    0.0010
   01/01/2000 07:00:00      0.181     0.042    0.0010
   01/01/2000 07:05:00      0.183     0.042    0.0010
   01/01/2000 07:10:00      0.183     0.042    0.0010
   01/01/2000 07:15:00      0.185     0.043    0.0010
   01/01/2000 07:20:00      0.187     0.043    0.0011
   01/01/2000 07:25:00      0.189     0.044    0.0011
   01/01/2000 07:30:00      0.191     0.044    0.0011
   01/01/2000 07:35:00      0.193     0.044    0.0011
   01/01/2000 07:40:00      0.193     0.045    0.0011
   01/01/2000 07:45:00      0.195     0.045    0.0011
   01/01/2000 07:50:00      0.197     0.045    0.0011
   01/01/2000 07:55:00      0.199     0.046    0.0011
   01/01/2000 08:00:00      0.201     0.046    0.0011
   01/01/2000 08:05:00      0.203     0.046    0.0012
   01/01/2000 08:10:00      0.203     0.047    0.0012
   01/01/2000 08:15:00      0.205     0.047    0.0012
   01/01/2000 08:20:00      0.207     0.048    0.0012
   01/01/2000 08:25:00      0.209     0.048    0.0012
   01/01/2000 08:30:00      0.211     0.049    0.0012
   01/01/2000 08:35:00      0.213     0.049    0.0012
   01/01/2000 08:40:00      0.213     0.049    0.0012
   01/01/2000 08:45:00      0.215     0.050    0.0012
   01/01/2000 08:50:00      0.217     0.050    0.0012
   01/01/2000 08:55:00      0.219     0.050    0.0013
   01/01/2000 09:00:00      0.225     0.052    0.0013
   01/01/2000 09:05:00      0.235     0.052    0.0013
   01/01/2000 09:10:00      0.235     0.054    0.0013
   01/01/2000 09:15:00      0.245     0.056    0.0013
   01/01/2000 09:20:00      0.255     0.059    0.0014
   01/01/2000 09:25:00      0.265     0.061    0.0014
   01/01/2000 09:30:00      0.275     0.063    0.0014
   01/01/2000 09:35:00      0.285     0.063    0.0015
   01/01/2000 09:40:00      0.285     0.066    0.0015
   01/01/2000 09:45:00      0.295     0.068    0.0016
   01/01/2000 09:50:00      0.305     0.070    0.0016
   01/01/2000 09:55:00      0.315     0.073    0.0016
   01/01/2000 10:00:00      0.320     0.074    0.0017
   01/01/2000 10:05:00      0.320     0.074    0.0017
   01/01/2000 10:10:00      0.320     0.074    0.0018
   01/01/2000 10:15:00      0.320     0.074    0.0018
   01/01/2000 10:20:00      0.320     0.074    0.0018
   01/01/2000 10:25:00      0.320     0.074    0.0018
   01/01/2000 10:30:00      0.328     0.076    0.0019
   01/01/2000 10:35:00      0.344     0.076    0.0019
   01/01/2000 10:40:00      0.344     0.079    0.0019
   01/01/2000 10:45:00      0.360     0.083    0.0020
   01/01/2000 10:50:00      0.376     0.087    0.0020
   01/01/2000 10:55:00      0.392     0.090    0.0021
   01/01/2000 11:00:00      0.412     0.095    0.0021
   01/01/2000 11:05:00      0.436     0.095    0.0022
   01/01/2000 11:10:00      0.436     0.101    0.0023
   01/01/2000 11:15:00      0.460     0.106    0.0024
   01/01/2000 11:20:00      0.484     0.112    0.0025
   01/01/2000 11:25:00      0.508     0.117    0.0026
   01/01/2000 11:30:00      0.540     0.125    0.0027
   01/01/2000 11:35:00      0.580     0.125    0.0028
   01/01/2000 11:40:00      0.580     0.134    0.0030
   01/01/2000 11:45:00      0.620     0.143    0.0031
   01/01/2000 11:50:00      0.660     0.152    0.0033
   01/01/2000 11:55:00      0.700     0.161    0.0035
   01/01/2000 12:00:00      0.768     0.177    0.0037
   01/01/2000 12:05:00      0.864     0.177    0.0039
   01/01/2000 12:10:00      0.864     0.199    0.0043
   01/01/2000 12:15:00      0.960     0.205    0.0060
   01/01/2000 12:20:00      1.056     0.205    0.0071
   01/01/2000 12:25:00      1.152     0.205    0.0078
   01/01/2000 12:30:00      2.384     0.205    0.0091
   01/01/2000 12:35:00      4.752     0.205    0.0131
   01/01/2000 12:40:00      4.752     0.205    0.0249
   01/01/2000 12:45:00      7.643     0.208    0.0446
   01/01/2000 12:50:00     13.707     0.210    0.0809
   01/01/2000 12:55:00      9.514     0.215    0.1073
   01/01/2000 13:00:00      1.896     0.215    0.0964
   01/01/2000 13:05:00      1.668     0.215    0.0556
   01/01/2000 13:10:00      1.668     0.212    0.0395
   01/01/2000 13:15:00      1.440     0.210    0.0297
   01/01/2000 13:20:00      1.212     0.208    0.0234
   01/01/2000 13:25:00      0.984     0.207    0.0189
   01/01/2000 13:30:00      0.844     0.207    0.0155
   01/01/2000 13:35:00      0.792     0.207    0.0130
   01/01/2000 13:40:00      0.792     0.206    0.0113
   01/01/2000 13:45:00      0.740     0.205    0.0100
   01/01/2000 13:50:00      0.688     0.205    0.0089
   01/01/2000 13:55:00      0.636     0.205    0.0081
   01/01/2000 14:00:00      0.596     0.204    0.0073
   01/01/2000 14:05:00      0.568     0.204    0.0067
   01/01/2000 14:10:00      0.568     0.204    0.0062
   01/01/2000 14:15:00      0.540     0.204    0.0058
   01/01/2000 14:20:00      0.512     0.203    0.0054
   01/01/2000 14:25:00      0.484     0.203    0.0051
   01/01/2000 14:30:00      0.460     0.179    0.0048
   01/01/2000 14:35:00      0.440     0.179    0.0046
   01/01/2000 14:40:00      0.440     0.101    0.0044
   01/01/2000 14:45:00      0.420     0.097    0.0042
   01/01/2000 14:50:00      0.400     0.092    0.0041
   01/01/2000 14:55:00      0.380     0.088    0.0039
   01/01/2000 15:00:00      0.367     0.085    0.0037
   01/01/2000 15:05:00      0.359     0.085    0.0036
   01/01/2000 15:10:00      0.359     0.083    0.0035
   01/01/2000 15:15:00      0.353     0.081    0.0034
   01/01/2000 15:20:00      0.345     0.080    0.0033
   01/01/2000 15:25:00      0.339     0.078    0.0032
   01/01/2000 15:30:00      0.331     0.076    0.0032
   01/01/2000 15:35:00      0.325     0.076    0.0031
   01/01/2000 15:40:00      0.325     0.075    0.0030
   01/01/2000 15:45:00      0.317     0.073    0.0030
   01/01/2000 15:50:00      0.311     0.072    0.0029
   01/01/2000 15:55:00      0.303     0.070    0.0029
   01/01/2000 16:00:00      0.297     0.068    0.0028
   01/01/2000 16:05:00      0.289     0.068    0.0027
   01/01/2000 16:10:00      0.289     0.067    0.0027
   01/01/2000 16:15:00      0.283     0.065    0.0026
   01/01/2000 16:20:00      0.275     0.063    0.0026
   01/01/2000 16:25:00      0.269     0.062    0.0025
   01/01/2000 16:30:00      0.261     0.060    0.0025
   01/01/2000 16:35:00      0.255     0.060    0.0024
   01/01/2000 16:40:00      0.255     0.059    0.0024
   01/01/2000 16:45:00      0.247     0.057    0.0023
   01/01/2000 16:50:00      0.241     0.056    0.0023
   01/01/2000 16:55:00      0.233     0.054    0.0022
   01/01/2000 17:00:00      0.229     0.053    0.0022
   01/01/2000 17:05:00      0.226     0.053    0.0022
   01/01/2000 17:10:00      0.226     0.052    0.0021
   01/01/2000 17:15:00      0.224     0.052    0.0021
   01/01/2000 17:20:00      0.221     0.051    0.0020
   01/01/2000 17:25:00      0.219     0.050    0.0020
   01/01/2000 17:30:00      0.216     0.050    0.0020
   01/01/2000 17:35:00      0.214     0.050    0.0020
   01/01/2000 17:40:00      0.214     0.049    0.0019
   01/01/2000 17:45:00      0.211     0.049    0.0019
   01/01/2000 17:50:00      0.209     0.048    0.0019
   01/01/2000 17:55:00      0.206     0.048    0.0019
   01/01/2000 18:00:00      0.204     0.047    0.0019
   01/01/2000 18:05:00      0.201     0.047    0.0018
   01/01/2000 18:10:00      0.201     0.046    0.0018
   01/01/2000 18:15:00      0.199     0.046    0.0018
   01/01/2000 18:20:00      0.196     0.045    0.0018
   01/01/2000 18:25:00      0.194     0.045    0.0018
   01/01/2000 18:30:00      0.191     0.044    0.0017
   01/01/2000 18:35:00      0.189     0.044    0.0017
   01/01/2000 18:40:00      0.189     0.044    0.0017
   01/01/2000 18:45:00      0.186     0.043    0.0017
   01/01/2000 18:50:00      0.184     0.042    0.0017
   01/01/2000 18:55:00      0.181     0.042    0.0017
   01/01/2000 19:00:00      0.179     0.041    0.0016
   01/01/2000 19:05:00      0.176     0.041    0.0016
   01/01/2000 19:10:00      0.176     0.041    0.0016
   01/01/2000 19:15:00      0.174     0.040    0.0016
   01/01/2000 19:20:00      0.171     0.039    0.0016
   01/01/2000 19:25:00      0.169     0.039    0.0015
   01/01/2000 19:30:00      0.166     0.038    0.0015
   01/01/2000 19:35:00      0.164     0.038    0.0015
   01/01/2000 19:40:00      0.164     0.038    0.0015
   01/01/2000 19:45:00      0.161     0.037    0.0015
   01/01/2000 19:50:00      0.159     0.037    0.0015
   01/01/2000 19:55:00      0.156     0.036    0.0014
   01/01/2000 20:00:00      0.154     0.036    0.0014
   01/01/2000 20:05:00      0.154     0.036    0.0014
   01/01/2000 20:10:00      0.151     0.035    0.0014
   01/01/2000 20:15:00      0.149     0.034    0.0014
   01/01/2000 20:20:00      0.146     0.034    0.0014
   01/01/2000 20:25:00      0.144     0.033    0.0013
   01/01/2000 20:30:00      0.141     0.033    0.0013
   01/01/2000 20:35:00      0.141     0.033    0.0013
   01/01/2000 20:40:00      0.139     0.032    0.0013
   01/01/2000 20:45:00      0.136     0.031    0.0013
   01/01/2000 20:50:00      0.134     0.031    0.0013
   01/01/2000 20:55:00      0.131     0.030    0.0012
   01/01/2000 21:00:00      0.130     0.030    0.0012
   01/01/2000 21:05:00      0.130     0.030    0.0012
   01/01/2000 21:10:00      0.129     0.030    0.0012
   01/01/2000 21:15:00      0.129     0.030    0.0012
   01/01/2000 21:20:00      0.128     0.030    0.0012
   01/01/2000 21:25:00      0.128     0.030    0.0012
   01/01/2000 21:30:00      0.127     0.030    0.0011
   01/01/2000 21:35:00      0.127     0.029    0.0011
   01/01/2000 21:40:00      0.127     0.029    0.0011
   01/01/2000 21:45:00      0.126     0.029    0.0011
   01/01/2000 21:50:00      0.126     0.029    0.0011
   01/01/2000 21:55:00      0.125     0.029    0.0011
   01/01/2000 22:00:00      0.125     0.029    0.0011
   01/01/2000 22:05:00      0.125     0.029    0.0011
   01/01/2000 22:10:00      0.124     0.029    0.0011
   01/01/2000 22:15:00      0.124     0.029    0.0011
   01/01/2000 22:20:00      0.123     0.028    0.0011
   01/01/2000 22:25:00      0.123     0.028    0.0011
   01/01/2000 22:30:00      0.122     0.028    0.0011
   01/01/2000 22:35:00      0.122     0.028    0.0011
   01/01/2000 22:40:00      0.122     0.028    0.0011
   01/01/2000 22:45:00      0.121     0.028    0.0011
   01/01/2000 22:50:00      0.121     0.028    0.0011
   01/01/2000 22:55:00      0.120     0.028    0.0011
   01/01/2000 23:00:00      0.120     0.028    0.0011
   01/01/2000 23:05:00      0.120     0.028    0.0010
   01/01/2000 23:10:00      0.119     0.027    0.0010
   01/01/2000 23:15:00      0.119     0.027    0.0010
   01/01/2000 23:20:00      0.118     0.027    0.0010
   01/01/2000 23:25:00      0.118     0.027    0.0010
   01/01/2000 23:30:00      0.117     0.027    0.0010
   01/01/2000 23:35:00      0.117     0.027    0.0010
   01/01/2000 23:40:00      0.117     0.027    0.0010
   01/01/2000 23:45:00      0.116     0.027    0.0010
   01/01/2000 23:50:00      0.116     0.027    0.0010
   01/01/2000 23:55:00      0.115     0.027    0.0010
   01/02/2000 00:00:00      0.115     0.027    0.0010
  
  
  ************
  Node Results
  ************
  
  <<< Node J3 >>>
  ----------------------------------------------------------------
                           Inflow  Flooding     Depth      Head
  Date        Time            CMS       CMS    meters    meters
  ----------------------------------------------------------------
   01/01/2000 00:05:00      0.000     0.000     0.000    93.000
   01/01/2000 00:10:00      0.000     0.000     0.000    93.000
   01/01/2000 00:15:00      0.000     0.000     0.000    93.000
   01/01/2000 00:20:00      0.000     0.000     0.000    93.000
   01/01/2000 00:25:00      0.000     0.000     0.000    93.000
   01/01/2000 00:30:00      0.000     0.000     0.000    93.000
   01/01/2000 00:35:00      0.000     0.000     0.000    93.000
   01/01/2000 00:40:00      0.000     0.000     0.000    93.000
   01/01/2000 00:45:00      0.000     0.000     0.000    93.000
   01/01/2000 00:50:00      0.000     0.000     0.000    93.000
   01/01/2000 00:55:00      0.000     0.000     0.000    93.000
   01/01/2000 01:00:00      0.000     0.000     0.000    93.000
   01/01/2000 01:05:00      0.000     0.000     0.000    93.000
   01/01/2000 01:10:00      0.000     0.000     0.001    93.001
   01/01/2000 01:15:00      0.000     0.000     0.001    93.001
   01/01/2000 01:20:00      0.000     0.000     0.001    93.001
   01/01/2000 01:25:00      0.000     0.000     0.001    93.001
   01/01/2000 01:30:00      0.000     0.000     0.001    93.001
   01/01/2000 01:35:00      0.000     0.000     0.001    93.001
   01/01/2000 01:40:00      0.000     0.000     0.001    93.002
   01/01/2000 01:45:00      0.000     0.000     0.002    93.002
   01/01/2000 01:50:00      0.000     0.000     0.002    93.002
   01/01/2000 01:55:00      0.000     0.000     0.002    93.002
   01/01/2000 02:00:00      0.000     0.000     0.002    93.002
   01/01/2000 02:05:00      0.000     0.000     0.003    93.003
   01/01/2000 02:10:00      0.000     0.000     0.003    93.003
   01/01/2000 02:15:00      0.000     0.000     0.003    93.003
   01/01/2000 02:20:00      0.000     0.000     0.003    93.003
   01/01/2000 02:25:00      0.000     0.000     0.003    93.003
   01/01/2000 02:30:00      0.000     0.000     0.004    93.004
   01/01/2000 02:35:00      0.000     0.000     0.004    93.004
   01/01/2000 02:40:00      0.000     0.000     0.004    93.004
   01/01/2000 02:45:00      0.000     0.000     0.004    93.004
   01/01/2000 02:50:00      0.000     0.000     0.004    93.004
   01/01/2000 02:55:00      0.001     0.000     0.004    93.004
   01/01/2000 03:00:00      0.001     0.000     0.004    93.004
   01/01/2000 03:05:00      0.001     0.000     0.004    93.004
   01/01/2000 03:10:00      0.001     0.000     0.004    93.004
   01/01/2000 03:15:00      0.001     0.000     0.004    93.004
   01/01/2000 03:20:00      0.001     0.000     0.004    93.004
   01/01/2000 03:25:00      0.001     0.000     0.005    93.005
   01/01/2000 03:30:00      0.001     0.000     0.005    93.005
   01/01/2000 03:35:00      0.001     0.000     0.005    93.005
   01/01/2000 03:40:00      0.001     0.000     0.005    93.005
   01/01/2000 03:45:00      0.001     0.000     0.005    93.005
   01/01/2000 03:50:00      0.001     0.000     0.005    93.005
   01/01/2000 03:55:00      0.001     0.000     0.005    93.005
   01/01/2000 04:00:00      0.001     0.000     0.005    93.005
   01/01/2000 04:05:00      0.001     0.000     0.005    93.005
   01/01/2000 04:10:00      0.001     0.000     0.005    93.005
   01/01/2000 04:15:00      0.001     0.000     0.005    93.005
   01/01/2000 04:20:00      0.001     0.000     0.005    93.005
   01/01/2000 04:25:00      0.001     0.000     0.005    93.005
   01/01/2000 04:30:00      0.001     0.000     0.005    93.005
   01/01/2000 04:35:00      0.001     0.000     0.005    93.005
   01/01/2000 04:40:00      0.001     0.000     0.005    93.005
   01/01/2000 04:45:00      0.001     0.000     0.005    93.005
   01/01/2000 04:50:00      0.001     0.000     0.005    93.005
   01/01/2000 04:55:00      0.001     0.000     0.005    93.005
   01/01/2000 05:00:00      0.001     0.000     0.005    93.005
   01/01/2000 05:05:00      0.001     0.000     0.005    93.005
   01/01/2000 05:10:00      0.001     0.000     0.005    93.005
   01/01/2000 05:15:00      0.001     0.000     0.005    93.005
   01/01/2000 05:20:00      0.001     0.000     0.005    93.005
   01/01/2000 05:25:00      0.001     0.000     0.005    93.005
   01/01/2000 05:30:00      0.001     0.000     0.005    93.005
   01/01/2000 05:35:00      0.001     0.000     0.005    93.005
   01/01/2000 05:40:00      0.001     0.000     0.005    93.005
   01/01/2000 05:45:00      0.001     0.000     0.005    93.005
   01/01/2000 05:50:00      0.001     0.000     0.005    93.005
   01/01/2000 05:55:00      0.001     0.000     0.005    93.005
   01/01/2000 06:00:00      0.001     0.000     0.005    93.005
   01/01/2000 06:05:00      0.001     0.000     0.005    93.005
   01/01/2000 06:10:00      0.001     0.000     0.005    93.005
   01/01/2000 06:15:00      0.001     0.000     0.005    93.005
   01/01/2000 06:20:00      0.001     0.000     0.005    93.005
   01/01/2000 06:25:00      0.001     0.000     0.005    93.005
   01/01/2000 06:30:00      0.001     0.000     0.005    93.005
   01/01/2000 06:35:00      0.001     0.000     0.005    93.005
   01/01/2000 06:40:00      0.001     0.000     0.006    93.006
   01/01/2000 06:45:00      0.001     0.000     0.006    93.006
   01/01/2000 06:50:00      0.001     0.000     0.006    93.006
   01/01/2000 06:55:00      0.001     0.000     0.006    93.006
   01/01/2000 07:00:00      0.001     0.000     0.006    93.006
   01/01/2000 07:05:00      0.001     0.000     0.006    93.006
   01/01/2000 07:10:00      0.001     0.000     0.006    93.006
   01/01/2000 07:15:00      0.001     0.000     0.006    93.006
   01/01/2000 07:20:00      0.001     0.000     0.006    93.006
   01/01/2000 07:25:00      0.001     0.000     0.006    93.006
   01/01/2000 07:30:00      0.001     0.000     0.006    93.006
   01/01/2000 07:35:00      0.001     0.000     0.006    93.006
   01/01/2000 07:40:00      0.001     0.000     0.006    93.006
   01/01/2000 07:45:00      0.001     0.000     0.006    93.006
   01/01/2000 07:50:00      0.001     0.000     0.006    93.006
   01/01/2000 07:55:00      0.001     0.000     0.006    93.006
   01/01/2000 08:00:00      0.001     0.000     0.006    93.006
   01/01/2000 08:05:00      0.001     0.000     0.006    93.006
   01/01/2000 08:10:00      0.001     0.000     0.006    93.006
   01/01/2000 08:15:00      0.001     0.000     0.006    93.006
   01/01/2000 08:20:00      0.001     0.000     0.006    93.006
   01/01/2000 08:25:00      0.001     0.000     0.006    93.006
   01/01/2000 08:30:00      0.001     0.000     0.006    93.006
   01/01/2000 08:35:00      0.001     0.000     0.006    93.006
   01/01/2000 08:40:00      0.001     0.000     0.006    93.006
   01/01/2000 08:45:00      0.001     0.000     0.006    93.006
   01/01/2000 08:50:00      0.001     0.000     0.006    93.006
   01/01/2000 08:55:00      0.001     0.000     0.006    93.006
   01/01/2000 09:00:00      0.001     0.000     0.006    93.006
   01/01/2000 09:05:00      0.001     0.000     0.006    93.006
   01/01/2000 09:10:00      0.001     0.000     0.006    93.006
   01/01/2000 09:15:00      0.001     0.000     0.006    93.006
   01/01/2000 09:20:00      0.001     0.000     0.006    93.006
   01/01/2000 09:25:00      0.001     0.000     0.006    93.006
   01/01/2000 09:30:00      0.001     0.000     0.007    93.007
   01/01/2000 09:35:00      0.001     0.000     0.007    93.007
   01/01/2000 09:40:00      0.002     0.000     0.007    93.007
   01/01/2000 09:45:00      0.002     0.000     0.007    93.007
   01/01/2000 09:50:00      0.002     0.000     0.007    93.007
   01/01/2000 09:55:00      0.002     0.000     0.007    93.007
   01/01/2000 10:00:00      0.002     0.000     0.007    93.007
   01/01/2000 10:05:00      0.002     0.000     0.007    93.007
   01/01/2000 10:10:00      0.002     0.000     0.007    93.007
   01/01/2000 10:15:00      0.002     0.000     0.007    93.007
   01/01/2000 10:20:00      0.002     0.000     0.007    93.007
   01/01/2000 10:25:00      0.002     0.000     0.007    93.007
   01/01/2000 10:30:00      0.002     0.000     0.007    93.007
   01/01/2000 10:35:00      0.002     0.000     0.007    93.007
   01/01/2000 10:40:00      0.002     0.000     0.008    93.008
   01/01/2000 10:45:00      0.002     0.000     0.008    93.008
   01/01/2000 10:50:00      0.002     0.000     0.008    93.008
   01/01/2000 10:55:00      0.002     0.000     0.008    93.008
   01/01/2000 11:00:00      0.002     0.000     0.008    93.008
   01/01/2000 11:05:00      0.002     0.000     0.008    93.008
   01/01/2000 11:10:00      0.002     0.000     0.008    93.008
   01/01/2000 11:15:00      0.002     0.000     0.008    93.008
   01/01/2000 11:20:00      0.002     0.000     0.008    93.008
   01/01/2000 11:25:00      0.003     0.000     0.009    93.009
   01/01/2000 11:30:00      0.003     0.000     0.009    93.009
   01/01/2000 11:35:00      0.003     0.000     0.009    93.009
   01/01/2000 11:40:00      0.003     0.000     0.009    93.009
   01/01/2000 11:45:00      0.003     0.000     0.009    93.009
   01/01/2000 11:50:00      0.003     0.000     0.010    93.010
   01/01/2000 11:55:00      0.003     0.000     0.010    93.010
   01/01/2000 12:00:00      0.004     0.000     0.010    93.010
   01/01/2000 12:05:00      0.004     0.000     0.010    93.010
   01/01/2000 12:10:00      0.004     0.000     0.011    93.011
   01/01/2000 12:15:00      0.006     0.000     0.012    93.012
   01/01/2000 12:20:00      0.007     0.000     0.014    93.014
   01/01/2000 12:25:00      0.008     0.000     0.014    93.014
   01/01/2000 12:30:00      0.008     0.000     0.015    93.015
   01/01/2000 12:35:00      0.012     0.000     0.018    93.018
   01/01/2000 12:40:00      0.023     0.000     0.024    93.024
   01/01/2000 12:45:00      0.040     0.000     0.031    93.031
   01/01/2000 12:50:00      0.072     0.000     0.040    93.040
   01/01/2000 12:55:00      0.108     0.000     0.049    93.049
   01/01/2000 13:00:00      0.105     0.000     0.048    93.048
   01/01/2000 13:05:00      0.064     0.000     0.038    93.038
   01/01/2000 13:10:00      0.043     0.000     0.032    93.032
   01/01/2000 13:15:00      0.031     0.000     0.027    93.027
   01/01/2000 13:20:00      0.024     0.000     0.024    93.024
   01/01/2000 13:25:00      0.020     0.000     0.022    93.022
   01/01/2000 13:30:00      0.016     0.000     0.020    93.020
   01/01/2000 13:35:00      0.014     0.000     0.019    93.019
   01/01/2000 13:40:00      0.012     0.000     0.017    93.017
   01/01/2000 13:45:00      0.010     0.000     0.016    93.016
   01/01/2000 13:50:00      0.009     0.000     0.016    93.016
   01/01/2000 13:55:00      0.008     0.000     0.015    93.015
   01/01/2000 14:00:00      0.007     0.000     0.014    93.014
   01/01/2000 14:05:00      0.007     0.000     0.014    93.014
   01/01/2000 14:10:00      0.006     0.000     0.013    93.013
   01/01/2000 14:15:00      0.006     0.000     0.013    93.013
   01/01/2000 14:20:00      0.005     0.000     0.012    93.012
   01/01/2000 14:25:00      0.005     0.000     0.012    93.012
   01/01/2000 14:30:00      0.005     0.000     0.012    93.012
   01/01/2000 14:35:00      0.005     0.000     0.011    93.011
   01/01/2000 14:40:00      0.004     0.000     0.011    93.011
   01/01/2000 14:45:00      0.004     0.000     0.011    93.011
   01/01/2000 14:50:00      0.004     0.000     0.011    93.011
   01/01/2000 14:55:00      0.004     0.000     0.011    93.011
   01/01/2000 15:00:00      0.004     0.000     0.010    93.010
   01/01/2000 15:05:00      0.004     0.000     0.010    93.010
   01/01/2000 15:10:00      0.004     0.000     0.010    93.010
   01/01/2000 15:15:00      0.003     0.000     0.010    93.010
   01/01/2000 15:20:00      0.003     0.000     0.010    93.010
   01/01/2000 15:25:00      0.003     0.000     0.010    93.010
   01/01/2000 15:30:00      0.003     0.000     0.010    93.010
   01/01/2000 15:35:00      0.003     0.000     0.009    93.009
   01/01/2000 15:40:00      0.003     0.000     0.009    93.009
   01/01/2000 15:45:00      0.003     0.000     0.009    93.009
   01/01/2000 15:50:00      0.003     0.000     0.009    93.009
   01/01/2000 15:55:00      0.003     0.000     0.009    93.009
   01/01/2000 16:00:00      0.003     0.000     0.009    93.009
   01/01/2000 16:05:00      0.003     0.000     0.009    93.009
   01/01/2000 16:10:00      0.003     0.000     0.009    93.009
   01/01/2000 16:15:00      0.003     0.000     0.009    93.009
   01/01/2000 16:20:00      0.003     0.000     0.009    93.009
   01/01/2000 16:25:00      0.003     0.000     0.009    93.009
   01/01/2000 16:30:00      0.002     0.000     0.009    93.009
   01/01/2000 16:35:00      0.002     0.000     0.008    93.008
   01/01/2000 16:40:00      0.002     0.000     0.008    93.008
   01/01/2000 16:45:00      0.002     0.000     0.008    93.008
   01/01/2000 16:50:00      0.002     0.000     0.008    93.008
   01/01/2000 16:55:00      0.002     0.000     0.008    93.008
   01/01/2000 17:00:00      0.002     0.000     0.008    93.008
   01/01/2000 17:05:00      0.002     0.000     0.008    93.008
   01/01/2000 17:10:00      0.002     0.000     0.008    93.008
   01/01/2000 17:15:00      0.002     0.000     0.008    93.008
   01/01/2000 17:20:00      0.002     0.000     0.008    93.008
   01/01/2000 17:25:00      0.002     0.000     0.008    93.008
   01/01/2000 17:30:00      0.002     0.000     0.008    93.008
   01/01/2000 17:35:00      0.002     0.000     0.008    93.008
   01/01/2000 17:40:00      0.002     0.000     0.008    93.008
   01/01/2000 17:45:00      0.002     0.000     0.008    93.008
   01/01/2000 17:50:00      0.002     0.000     0.008    93.008
   01/01/2000 17:55:00      0.002     0.000     0.007    93.007
   01/01/2000 18:00:00      0.002     0.000     0.007    93.007
   01/01/2000 18:05:00      0.002     0.000     0.007    93.007
   01/01/2000 18:10:00      0.002     0.000     0.007    93.007
   01/01/2000 18:15:00      0.002     0.000     0.007    93.007
   01/01/2000 18:20:00      0.002     0.000     0.007    93.007
   01/01/2000 18:25:00      0.002     0.000     0.007    93.007
   01/01/2000 18:30:00      0.002     0.000     0.007    93.007
   01/01/2000 18:35:00      0.002     0.000     0.007    93.007
   01/01/2000 18:40:00      0.002     0.000     0.007    93.007
   01/01/2000 18:45:00      0.002     0.000     0.007    93.007
   01/01/2000 18:50:00      0.002     0.000     0.007    93.007
   01/01/2000 18:55:00      0.002     0.000     0.007    93.007
   01/01/2000 19:00:00      0.002     0.000     0.007    93.007
   01/01/2000 19:05:00      0.002     0.000     0.007    93.007
   01/01/2000 19:10:00      0.002     0.000     0.007    93.007
   01/01/2000 19:15:00      0.002     0.000     0.007    93.007
   01/01/2000 19:20:00      0.002     0.000     0.007    93.007
   01/01/2000 19:25:00      0.002     0.000     0.007    93.007
   01/01/2000 19:30:00      0.002     0.000     0.007    93.007
   01/01/2000 19:35:00      0.002     0.000     0.007    93.007
   01/01/2000 19:40:00      0.001     0.000     0.007    93.007
   01/01/2000 19:45:00      0.001     0.000     0.007    93.007
   01/01/2000 19:50:00      0.001     0.000     0.007    93.007
   01/01/2000 19:55:00      0.001     0.000     0.007    93.007
   01/01/2000 20:00:00      0.001     0.000     0.007    93.007
   01/01/2000 20:05:00      0.001     0.000     0.007    93.007
   01/01/2000 20:10:00      0.001     0.000     0.007    93.007
   01/01/2000 20:15:00      0.001     0.000     0.006    93.006
   01/01/2000 20:20:00      0.001     0.000     0.006    93.006
   01/01/2000 20:25:00      0.001     0.000     0.006    93.006
   01/01/2000 20:30:00      0.001     0.000     0.006    93.006
   01/01/2000 20:35:00      0.001     0.000     0.006    93.006
   01/01/2000 20:40:00      0.001     0.000     0.006    93.006
   01/01/2000 20:45:00      0.001     0.000     0.006    93.006
   01/01/2000 20:50:00      0.001     0.000     0.006    93.006
   01/01/2000 20:55:00      0.001     0.000     0.006    93.006
   01/01/2000 21:00:00      0.001     0.000     0.006    93.006
   01/01/2000 21:05:00      0.001     0.000     0.006    93.006
   01/01/2000 21:10:00      0.001     0.000     0.006    93.006
   01/01/2000 21:15:00      0.001     0.000     0.006    93.006
   01/01/2000 21:20:00      0.001     0.000     0.006    93.006
   01/01/2000 21:25:00      0.001     0.000     0.006    93.006
   01/01/2000 21:30:00      0.001     0.000     0.006    93.006
   01/01/2000 21:35:00      0.001     0.000     0.006    93.006
   01/01/2000 21:40:00      0.001     0.000     0.006    93.006
   01/01/2000 21:45:00      0.001     0.000     0.006    93.006
   01/01/2000 21:50:00      0.001     0.000     0.006    93.006
   01/01/2000 21:55:00      0.001     0.000     0.006    93.006
   01/01/2000 22:00:00      0.001     0.000     0.006    93.006
   01/01/2000 22:05:00      0.001     0.000     0.006    93.006
   01/01/2000 22:10:00      0.001     0.000     0.006    93.006
   01/01/2000 22:15:00      0.001     0.000     0.006    93.006
   01/01/2000 22:20:00      0.001     0.000     0.006    93.006
   01/01/2000 22:25:00      0.001     0.000     0.006    93.006
   01/01/2000 22:30:00      0.001     0.000     0.006    93.006
   01/01/2000 22:35:00      0.001     0.000     0.006    93.006
   01/01/2000 22:40:00      0.001     0.000     0.006    93.006
   01/01/2000 22:45:00      0.001     0.000     0.006    93.006
   01/01/2000 22:50:00      0.001     0.000     0.006    93.006
   01/01/2000 22:55:00      0.001     0.000     0.006    93.006
   01/01/2000 23:00:00      0.001     0.000     0.006    93.006
   01/01/2000 23:05:00      0.001     0.000     0.006    93.006
   01/01/2000 23:10:00      0.001     0.000     0.006    93.006
   01/01/2000 23:15:00      0.001     0.000     0.006    93.006
   01/01/2000 23:20:00      0.001     0.000     0.006    93.006
   01/01/2000 23:25:00      0.001     0.000     0.006    93.006
   01/01/2000 23:30:00      0.001     0.000     0.006    93.006
   01/01/2000 23:35:00      0.001     0.000     0.006    93.006
   01/01/2000 23:40:00      0.001     0.000     0.006    93.006
   01/01/2000 23:45:00      0.001     0.000     0.006    93.006
   01/01/2000 23:50:00      0.001     0.000     0.006    93.006
   01/01/2000 23:55:00      0.001     0.000     0.006    93.006
   01/02/2000 00:00:00      0.001     0.000     0.006    93.006
  
  
  <<< Node J1 >>>
  ----------------------------------------------------------------
                           Inflow  Flooding     Depth      Head
  Date        Time            CMS       CMS    meters    meters
  ----------------------------------------------------------------
   01/01/2000 00:05:00      0.000     0.000     0.000    96.000
   01/01/2000 00:10:00      0.000     0.000     0.000    96.000
   01/01/2000 00:15:00      0.000     0.000     0.000    96.000
   01/01/2000 00:20:00      0.000     0.000     0.000    96.000
   01/01/2000 00:25:00      0.000     0.000     0.000    96.000
   01/01/2000 00:30:00      0.000     0.000     0.000    96.000
   01/01/2000 00:35:00      0.000     0.000     0.000    96.000
   01/01/2000 00:40:00      0.000     0.000     0.000    96.000
   01/01/2000 00:45:00      0.000     0.000     0.000    96.000
   01/01/2000 00:50:00      0.000     0.000     0.000    96.000
   01/01/2000 00:55:00      0.000     0.000     0.000    96.000
   01/01/2000 01:00:00      0.000     0.000     0.000    96.000
   01/01/2000 01:05:00      0.000     0.000     0.001    96.001
   01/01/2000 01:10:00      0.000     0.000     0.001    96.001
   01/01/2000 01:15:00      0.000     0.000     0.001    96.001
   01/01/2000 01:20:00      0.000     0.000     0.002    96.002
   01/01/2000 01:25:00      0.000     0.000     0.002    96.002
   01/01/2000 01:30:00      0.000     0.000     0.002    96.002
   01/01/2000 01:35:00      0.000     0.000     0.003    96.003
   01/01/2000 01:40:00      0.000     0.000     0.003    96.003
   01/01/2000 01:45:00      0.000     0.000     0.003    96.003
   01/01/2000 01:50:00      0.000     0.000     0.003    96.003
   01/01/2000 01:55:00      0.000     0.000     0.004    96.004
   01/01/2000 02:00:00      0.000     0.000     0.004    96.004
   01/01/2000 02:05:00      0.000     0.000     0.005    96.005
   01/01/2000 02:10:00      0.000     0.000     0.005    96.005
   01/01/2000 02:15:00      0.000     0.000     0.006    96.006
   01/01/2000 02:20:00      0.000     0.000     0.006    96.006
   01/01/2000 02:25:00      0.000     0.000     0.007    96.007
   01/01/2000 02:30:00      0.000     0.000     0.007    96.007
   01/01/2000 02:35:00      0.001     0.000     0.007    96.007
   01/01/2000 02:40:00      0.001     0.000     0.008    96.007
   01/01/2000 02:45:00      0.001     0.000     0.008    96.008
   01/01/2000 02:50:00      0.001     0.000     0.008    96.008
   01/01/2000 02:55:00      0.001     0.000     0.008    96.008
   01/01/2000 03:00:00      0.001     0.000     0.009    96.009
   01/01/2000 03:05:00      0.001     0.000     0.009    96.009
   01/01/2000 03:10:00      0.001     0.000     0.009    96.009
   01/01/2000 03:15:00      0.001     0.000     0.009    96.009
   01/01/2000 03:20:00      0.001     0.000     0.009    96.009
   01/01/2000 03:25:00      0.001     0.000     0.009    96.009
   01/01/2000 03:30:00      0.001     0.000     0.010    96.010
   01/01/2000 03:35:00      0.001     0.000     0.010    96.010
   01/01/2000 03:40:00      0.001     0.000     0.010    96.010
   01/01/2000 03:45:00      0.001     0.000     0.010    96.010
   01/01/2000 03:50:00      0.001     0.000     0.010    96.010
   01/01/2000 03:55:00      0.001     0.000     0.010    96.010
   01/01/2000 04:00:00      0.001     0.000     0.010    96.010
   01/01/2000 04:05:00      0.001     0.000     0.010    96.010
   01/01/2000 04:10:00      0.001     0.000     0.010    96.010
   01/01/2000 04:15:00      0.001     0.000     0.010    96.010
   01/01/2000 04:20:00      0.001     0.000     0.010    96.010
   01/01/2000 04:25:00      0.001     0.000     0.011    96.011
   01/01/2000 04:30:00      0.001     0.000     0.011    96.011
   01/01/2000 04:35:00      0.001     0.000     0.011    96.011
   01/01/2000 04:40:00      0.001     0.000     0.011    96.011
   01/01/2000 04:45:00      0.001     0.000     0.011    96.011
   01/01/2000 04:50:00      0.001     0.000     0.011    96.011
   01/01/2000 04:55:00      0.001     0.000     0.011    96.011
   01/01/2000 05:00:00      0.001     0.000     0.011    96.011
   01/01/2000 05:05:00      0.001     0.000     0.011    96.011
   01/01/2000 05:10:00      0.001     0.000     0.011    96.011
   01/01/2000 05:15:00      0.001     0.000     0.011    96.011
   01/01/2000 05:20:00      0.001     0.000     0.011    96.011
   01/01/2000 05:25:00      0.001     0.000     0.011    96.011
   01/01/2000 05:30:00      0.001     0.000     0.011    96.011
   01/01/2000 05:35:00      0.001     0.000     0.011    96.011
   01/01/2000 05:40:00      0.001     0.000     0.011    96.011
   01/01/2000 05:45:00      0.001     0.000     0.011    96.011
[...]
   01/01/2000 22:35:00      0.002     0.275     0.026     0.007
   01/01/2000 22:40:00      0.002     0.275     0.026     0.007
   01/01/2000 22:45:00      0.002     0.274     0.026     0.007
   01/01/2000 22:50:00      0.002     0.273     0.026     0.007
   01/01/2000 22:55:00      0.001     0.272     0.026     0.007
   01/01/2000 23:00:00      0.001     0.272     0.026     0.007
   01/01/2000 23:05:00      0.001     0.271     0.026     0.007
   01/01/2000 23:10:00      0.001     0.270     0.026     0.007
   01/01/2000 23:15:00      0.001     0.270     0.025     0.007
   01/01/2000 23:20:00      0.001     0.269     0.025     0.007
   01/01/2000 23:25:00      0.001     0.269     0.025     0.007
   01/01/2000 23:30:00      0.001     0.268     0.025     0.007
   01/01/2000 23:35:00      0.001     0.268     0.025     0.007
   01/01/2000 23:40:00      0.001     0.267     0.025     0.007
   01/01/2000 23:45:00      0.001     0.267     0.025     0.007
   01/01/2000 23:50:00      0.001     0.266     0.025     0.007
   01/01/2000 23:55:00      0.001     0.266     0.025     0.007
   01/02/2000 00:00:00      0.001     0.265     0.025     0.007
  
  
  <<< Link C1 >>>
  ----------------------------------------------------------------
                             Flow  Velocity     Depth  Capacity/
  Date        Time            CMS     m/sec    meters   Setting 
  ----------------------------------------------------------------
   01/01/2000 00:05:00      0.000     0.000     0.000     0.000
   01/01/2000 00:10:00      0.000     0.000     0.000     0.000
   01/01/2000 00:15:00      0.000     0.000     0.000     0.000
   01/01/2000 00:20:00      0.000     0.000     0.000     0.000
   01/01/2000 00:25:00      0.000     0.000     0.000     0.000
   01/01/2000 00:30:00      0.000     0.000     0.000     0.000
   01/01/2000 00:35:00      0.000     0.000     0.000     0.000
   01/01/2000 00:40:00      0.000     0.000     0.000     0.000
   01/01/2000 00:45:00      0.000     0.000     0.000     0.000
   01/01/2000 00:50:00      0.000     0.000     0.000     0.000
   01/01/2000 00:55:00      0.000     0.000     0.000     0.000
   01/01/2000 01:00:00      0.000     0.000     0.000     0.000
   01/01/2000 01:05:00      0.000     0.000     0.000     0.000
   01/01/2000 01:10:00      0.000     0.000     0.001     0.000
   01/01/2000 01:15:00      0.000     0.000     0.001     0.000
   01/01/2000 01:20:00      0.000     0.000     0.001     0.000
   01/01/2000 01:25:00      0.000     0.000     0.001     0.000
   01/01/2000 01:30:00      0.000     0.000     0.002     0.000
   01/01/2000 01:35:00      0.000     0.000     0.002     0.000
   01/01/2000 01:40:00      0.000     0.000     0.002     0.000
   01/01/2000 01:45:00      0.000     0.000     0.003     0.000
   01/01/2000 01:50:00      0.000     0.000     0.003     0.000
   01/01/2000 01:55:00      0.000     0.177     0.003     0.001
   01/01/2000 02:00:00      0.000     0.210     0.004     0.001
   01/01/2000 02:05:00      0.000     0.247     0.004     0.001
   01/01/2000 02:10:00      0.000     0.289     0.005     0.001
   01/01/2000 02:15:00      0.000     0.331     0.005     0.001
   01/01/2000 02:20:00      0.000     0.371     0.006     0.001
   01/01/2000 02:25:00      0.000     0.408     0.006     0.001
   01/01/2000 02:30:00      0.000     0.441     0.007     0.001
   01/01/2000 02:35:00      0.000     0.473     0.007     0.001
   01/01/2000 02:40:00      0.000     0.501     0.007     0.001
   01/01/2000 02:45:00      0.001     0.526     0.008     0.001
   01/01/2000 02:50:00      0.001     0.549     0.008     0.001
   01/01/2000 02:55:00      0.001     0.570     0.008     0.001
   01/01/2000 03:00:00      0.001     0.590     0.008     0.001
   01/01/2000 03:05:00      0.001     0.607     0.009     0.002
   01/01/2000 03:10:00      0.001     0.623     0.009     0.002
   01/01/2000 03:15:00      0.001     0.637     0.009     0.002
   01/01/2000 03:20:00      0.001     0.650     0.009     0.002
   01/01/2000 03:25:00      0.001     0.662     0.009     0.002
   01/01/2000 03:30:00      0.001     0.673     0.009     0.002
   01/01/2000 03:35:00      0.001     0.683     0.010     0.002
   01/01/2000 03:40:00      0.001     0.692     0.010     0.002
   01/01/2000 03:45:00      0.001     0.700     0.010     0.002
   01/01/2000 03:50:00      0.001     0.708     0.010     0.002
   01/01/2000 03:55:00      0.001     0.715     0.010     0.002
   01/01/2000 04:00:00      0.001     0.722     0.010     0.002
   01/01/2000 04:05:00      0.001     0.728     0.010     0.002
   01/01/2000 04:10:00      0.001     0.733     0.010     0.002
   01/01/2000 04:15:00      0.001     0.739     0.010     0.002
   01/01/2000 04:20:00      0.001     0.743     0.010     0.002
   01/01/2000 04:25:00      0.001     0.748     0.010     0.002
   01/01/2000 04:30:00      0.001     0.752     0.011     0.002
   01/01/2000 04:35:00      0.001     0.756     0.011     0.002
   01/01/2000 04:40:00      0.001     0.760     0.011     0.002
   01/01/2000 04:45:00      0.001     0.764     0.011     0.002
   01/01/2000 04:50:00      0.001     0.767     0.011     0.002
   01/01/2000 04:55:00      0.001     0.770     0.011     0.002
   01/01/2000 05:00:00      0.001     0.774     0.011     0.002
   01/01/2000 05:05:00      0.001     0.776     0.011     0.002
   01/01/2000 05:10:00      0.001     0.779     0.011     0.002
   01/01/2000 05:15:00      0.001     0.782     0.011     0.002
   01/01/2000 05:20:00      0.001     0.785     0.011     0.002
   01/01/2000 05:25:00      0.001     0.788     0.011     0.002
   01/01/2000 05:30:00      0.001     0.791     0.011     0.002
   01/01/2000 05:35:00      0.001     0.795     0.011     0.002
   01/01/2000 05:40:00      0.001     0.798     0.011     0.002
   01/01/2000 05:45:00      0.001     0.801     0.011     0.002
   01/01/2000 05:50:00      0.001     0.805     0.011     0.002
   01/01/2000 05:55:00      0.001     0.809     0.011     0.002
   01/01/2000 06:00:00      0.001     0.812     0.012     0.002
   01/01/2000 06:05:00      0.001     0.816     0.012     0.002
   01/01/2000 06:10:00      0.001     0.819     0.012     0.002
   01/01/2000 06:15:00      0.001     0.823     0.012     0.002
   01/01/2000 06:20:00      0.001     0.826     0.012     0.002
   01/01/2000 06:25:00      0.001     0.830     0.012     0.002
   01/01/2000 06:30:00      0.002     0.834     0.012     0.002
   01/01/2000 06:35:00      0.002     0.837     0.012     0.002
   01/01/2000 06:40:00      0.002     0.841     0.012     0.002
   01/01/2000 06:45:00      0.002     0.844     0.012     0.002
   01/01/2000 06:50:00      0.002     0.848     0.012     0.002
   01/01/2000 06:55:00      0.002     0.851     0.012     0.002
   01/01/2000 07:00:00      0.002     0.855     0.012     0.002
   01/01/2000 07:05:00      0.002     0.858     0.012     0.002
   01/01/2000 07:10:00      0.002     0.862     0.012     0.002
   01/01/2000 07:15:00      0.002     0.865     0.012     0.002
   01/01/2000 07:20:00      0.002     0.869     0.012     0.002
   01/01/2000 07:25:00      0.002     0.872     0.012     0.002
   01/01/2000 07:30:00      0.002     0.875     0.013     0.002
   01/01/2000 07:35:00      0.002     0.879     0.013     0.003
   01/01/2000 07:40:00      0.002     0.882     0.013     0.003
   01/01/2000 07:45:00      0.002     0.885     0.013     0.003
   01/01/2000 07:50:00      0.002     0.889     0.013     0.003
   01/01/2000 07:55:00      0.002     0.892     0.013     0.003
   01/01/2000 08:00:00      0.002     0.895     0.013     0.003
   01/01/2000 08:05:00      0.002     0.898     0.013     0.003
   01/01/2000 08:10:00      0.002     0.902     0.013     0.003
   01/01/2000 08:15:00      0.002     0.905     0.013     0.003
   01/01/2000 08:20:00      0.002     0.908     0.013     0.003
   01/01/2000 08:25:00      0.002     0.911     0.013     0.003
   01/01/2000 08:30:00      0.002     0.914     0.013     0.003
   01/01/2000 08:35:00      0.002     0.917     0.013     0.003
   01/01/2000 08:40:00      0.002     0.920     0.013     0.003
   01/01/2000 08:45:00      0.002     0.923     0.013     0.003
   01/01/2000 08:50:00      0.002     0.926     0.013     0.003
   01/01/2000 08:55:00      0.002     0.929     0.013     0.003
   01/01/2000 09:00:00      0.002     0.932     0.014     0.003
   01/01/2000 09:05:00      0.002     0.935     0.014     0.003
   01/01/2000 09:10:00      0.002     0.938     0.014     0.003
   01/01/2000 09:15:00      0.002     0.942     0.014     0.003
   01/01/2000 09:20:00      0.002     0.948     0.014     0.003
   01/01/2000 09:25:00      0.002     0.955     0.014     0.003
   01/01/2000 09:30:00      0.002     0.963     0.014     0.003
   01/01/2000 09:35:00      0.002     0.971     0.014     0.003
   01/01/2000 09:40:00      0.002     0.980     0.015     0.003
   01/01/2000 09:45:00      0.002     0.990     0.015     0.003
   01/01/2000 09:50:00      0.002     1.000     0.015     0.003
   01/01/2000 09:55:00      0.003     1.010     0.015     0.003
   01/01/2000 10:00:00      0.003     1.021     0.015     0.003
   01/01/2000 10:05:00      0.003     1.032     0.015     0.003
   01/01/2000 10:10:00      0.003     1.043     0.016     0.003
   01/01/2000 10:15:00      0.003     1.052     0.016     0.003
   01/01/2000 10:20:00      0.003     1.060     0.016     0.003
   01/01/2000 10:25:00      0.003     1.066     0.016     0.003
   01/01/2000 10:30:00      0.003     1.071     0.016     0.003
   01/01/2000 10:35:00      0.003     1.075     0.016     0.004
   01/01/2000 10:40:00      0.003     1.079     0.016     0.004
   01/01/2000 10:45:00      0.003     1.085     0.016     0.004
   01/01/2000 10:50:00      0.003     1.093     0.017     0.004
   01/01/2000 10:55:00      0.003     1.102     0.017     0.004
   01/01/2000 11:00:00      0.003     1.112     0.017     0.004
   01/01/2000 11:05:00      0.003     1.123     0.017     0.004
   01/01/2000 11:10:00      0.003     1.135     0.018     0.004
   01/01/2000 11:15:00      0.004     1.148     0.018     0.004
   01/01/2000 11:20:00      0.004     1.163     0.018     0.004
   01/01/2000 11:25:00      0.004     1.179     0.018     0.004
   01/01/2000 11:30:00      0.004     1.196     0.019     0.004
   01/01/2000 11:35:00      0.004     1.213     0.019     0.004
   01/01/2000 11:40:00      0.004     1.230     0.020     0.005
   01/01/2000 11:45:00      0.005     1.249     0.020     0.005
   01/01/2000 11:50:00      0.005     1.266     0.021     0.005
   01/01/2000 11:55:00      0.005     1.284     0.021     0.005
   01/01/2000 12:00:00      0.005     1.304     0.022     0.005
   01/01/2000 12:05:00      0.006     1.322     0.022     0.006
   01/01/2000 12:10:00      0.006     1.343     0.023     0.006
   01/01/2000 12:15:00      0.007     1.368     0.024     0.006
   01/01/2000 12:20:00      0.007     1.400     0.025     0.007
   01/01/2000 12:25:00      0.008     1.440     0.026     0.007
   01/01/2000 12:30:00      0.009     1.486     0.027     0.008
   01/01/2000 12:35:00      0.011     1.534     0.032     0.010
   01/01/2000 12:40:00      0.019     1.745     0.041     0.014
   01/01/2000 12:45:00      0.034     2.105     0.053     0.021
   01/01/2000 12:50:00      0.059     2.495     0.068     0.030
   01/01/2000 12:55:00      0.104     3.194     0.086     0.042
   01/01/2000 13:00:00      0.105     3.240     0.085     0.041
   01/01/2000 13:05:00      0.077     3.107     0.071     0.031
   01/01/2000 13:10:00      0.050     2.689     0.059     0.024
   01/01/2000 13:15:00      0.037     2.409     0.051     0.020
   01/01/2000 13:20:00      0.029     2.231     0.046     0.017
   01/01/2000 13:25:00      0.024     2.112     0.042     0.014
   01/01/2000 13:30:00      0.020     2.012     0.038     0.013
   01/01/2000 13:35:00      0.017     1.900     0.035     0.011
   01/01/2000 13:40:00      0.014     1.804     0.033     0.010
   01/01/2000 13:45:00      0.013     1.727     0.031     0.009
   01/01/2000 13:50:00      0.011     1.665     0.030     0.009
   01/01/2000 13:55:00      0.010     1.614     0.028     0.008
   01/01/2000 14:00:00      0.009     1.570     0.027     0.008
   01/01/2000 14:05:00      0.009     1.528     0.026     0.007
   01/01/2000 14:10:00      0.008     1.490     0.025     0.007
   01/01/2000 14:15:00      0.007     1.459     0.024     0.006
   01/01/2000 14:20:00      0.007     1.432     0.024     0.006
   01/01/2000 14:25:00      0.007     1.408     0.023     0.006
   01/01/2000 14:30:00      0.006     1.387     0.023     0.006
   01/01/2000 14:35:00      0.006     1.367     0.022     0.005
   01/01/2000 14:40:00      0.006     1.347     0.022     0.005
   01/01/2000 14:45:00      0.005     1.330     0.021     0.005
   01/01/2000 14:50:00      0.005     1.314     0.021     0.005
   01/01/2000 14:55:00      0.005     1.299     0.020     0.005
   01/01/2000 15:00:00      0.005     1.284     0.020     0.005
   01/01/2000 15:05:00      0.005     1.265     0.019     0.005
   01/01/2000 15:10:00      0.004     1.247     0.019     0.004
   01/01/2000 15:15:00      0.004     1.231     0.019     0.004
   01/01/2000 15:20:00      0.004     1.217     0.019     0.004
   01/01/2000 15:25:00      0.004     1.205     0.018     0.004
   01/01/2000 15:30:00      0.004     1.193     0.018     0.004
   01/01/2000 15:35:00      0.004     1.182     0.018     0.004
   01/01/2000 15:40:00      0.004     1.172     0.018     0.004
   01/01/2000 15:45:00      0.004     1.162     0.018     0.004
   01/01/2000 15:50:00      0.004     1.153     0.017     0.004
   01/01/2000 15:55:00      0.003     1.144     0.017     0.004
   01/01/2000 16:00:00      0.003     1.136     0.017     0.004
   01/01/2000 16:05:00      0.003     1.128     0.017     0.004
   01/01/2000 16:10:00      0.003     1.120     0.017     0.004
   01/01/2000 16:15:00      0.003     1.111     0.017     0.004
   01/01/2000 16:20:00      0.003     1.104     0.016     0.004
   01/01/2000 16:25:00      0.003     1.096     0.016     0.004
   01/01/2000 16:30:00      0.003     1.088     0.016     0.003
   01/01/2000 16:35:00      0.003     1.080     0.016     0.003
   01/01/2000 16:40:00      0.003     1.072     0.016     0.003
   01/01/2000 16:45:00      0.003     1.065     0.016     0.003
   01/01/2000 16:50:00      0.003     1.057     0.016     0.003
   01/01/2000 16:55:00      0.003     1.049     0.015     0.003
   01/01/2000 17:00:00      0.003     1.041     0.015     0.003
   01/01/2000 17:05:00      0.003     1.033     0.015     0.003
   01/01/2000 17:10:00      0.003     1.025     0.015     0.003
   01/01/2000 17:15:00      0.002     1.017     0.015     0.003
   01/01/2000 17:20:00      0.002     1.010     0.015     0.003
   01/01/2000 17:25:00      0.002     1.004     0.015     0.003
   01/01/2000 17:30:00      0.002     0.998     0.015     0.003
   01/01/2000 17:35:00      0.002     0.992     0.014     0.003
   01/01/2000 17:40:00      0.002     0.987     0.014     0.003
   01/01/2000 17:45:00      0.002     0.982     0.014     0.003
   01/01/2000 17:50:00      0.002     0.977     0.014     0.003
   01/01/2000 17:55:00      0.002     0.973     0.014     0.003
   01/01/2000 18:00:00      0.002     0.968     0.014     0.003
   01/01/2000 18:05:00      0.002     0.964     0.014     0.003
   01/01/2000 18:10:00      0.002     0.960     0.014     0.003
   01/01/2000 18:15:00      0.002     0.955     0.014     0.003
   01/01/2000 18:20:00      0.002     0.951     0.014     0.003
   01/01/2000 18:25:00      0.002     0.947     0.014     0.003
   01/01/2000 18:30:00      0.002     0.944     0.014     0.003
   01/01/2000 18:35:00      0.002     0.940     0.014     0.003
   01/01/2000 18:40:00      0.002     0.936     0.013     0.003
   01/01/2000 18:45:00      0.002     0.932     0.013     0.003
   01/01/2000 18:50:00      0.002     0.928     0.013     0.003
   01/01/2000 18:55:00      0.002     0.924     0.013     0.003
   01/01/2000 19:00:00      0.002     0.921     0.013     0.003
   01/01/2000 19:05:00      0.002     0.917     0.013     0.003
   01/01/2000 19:10:00      0.002     0.913     0.013     0.003
   01/01/2000 19:15:00      0.002     0.909     0.013     0.003
   01/01/2000 19:20:00      0.002     0.905     0.013     0.003
   01/01/2000 19:25:00      0.002     0.902     0.013     0.003
   01/01/2000 19:30:00      0.002     0.898     0.013     0.003
   01/01/2000 19:35:00      0.002     0.894     0.013     0.003
   01/01/2000 19:40:00      0.002     0.890     0.013     0.003
   01/01/2000 19:45:00      0.002     0.886     0.013     0.002
   01/01/2000 19:50:00      0.002     0.882     0.013     0.002
   01/01/2000 19:55:00      0.002     0.878     0.012     0.002
   01/01/2000 20:00:00      0.002     0.874     0.012     0.002
   01/01/2000 20:05:00      0.002     0.870     0.012     0.002
   01/01/2000 20:10:00      0.002     0.866     0.012     0.002
   01/01/2000 20:15:00      0.002     0.862     0.012     0.002
   01/01/2000 20:20:00      0.002     0.858     0.012     0.002
   01/01/2000 20:25:00      0.002     0.854     0.012     0.002
   01/01/2000 20:30:00      0.002     0.850     0.012     0.002
   01/01/2000 20:35:00      0.002     0.846     0.012     0.002
   01/01/2000 20:40:00      0.002     0.842     0.012     0.002
   01/01/2000 20:45:00      0.002     0.838     0.012     0.002
   01/01/2000 20:50:00      0.001     0.833     0.012     0.002
   01/01/2000 20:55:00      0.001     0.829     0.012     0.002
   01/01/2000 21:00:00      0.001     0.825     0.012     0.002
   01/01/2000 21:05:00      0.001     0.820     0.011     0.002
   01/01/2000 21:10:00      0.001     0.816     0.011     0.002
   01/01/2000 21:15:00      0.001     0.811     0.011     0.002
   01/01/2000 21:20:00      0.001     0.807     0.011     0.002
   01/01/2000 21:25:00      0.001     0.804     0.011     0.002
   01/01/2000 21:30:00      0.001     0.801     0.011     0.002
   01/01/2000 21:35:00      0.001     0.798     0.011     0.002
   01/01/2000 21:40:00      0.001     0.795     0.011     0.002
   01/01/2000 21:45:00      0.001     0.792     0.011     0.002
   01/01/2000 21:50:00      0.001     0.790     0.011     0.002
   01/01/2000 21:55:00      0.001     0.788     0.011     0.002
   01/01/2000 22:00:00      0.001     0.786     0.011     0.002
   01/01/2000 22:05:00      0.001     0.784     0.011     0.002
   01/01/2000 22:10:00      0.001     0.782     0.011     0.002
   01/01/2000 22:15:00      0.001     0.780     0.011     0.002
   01/01/2000 22:20:00      0.001     0.778     0.011     0.002
   01/01/2000 22:25:00      0.001     0.777     0.011     0.002
   01/01/2000 22:30:00      0.001     0.775     0.011     0.002
   01/01/2000 22:35:00      0.001     0.774     0.011     0.002
   01/01/2000 22:40:00      0.001     0.772     0.011     0.002
   01/01/2000 22:45:00      0.001     0.771     0.011     0.002
   01/01/2000 22:50:00      0.001     0.769     0.011     0.002
   01/01/2000 22:55:00      0.001     0.768     0.011     0.002
   01/01/2000 23:00:00      0.001     0.767     0.011     0.002
   01/01/2000 23:05:00      0.001     0.765     0.011     0.002
   01/01/2000 23:10:00      0.001     0.764     0.011     0.002
   01/01/2000 23:15:00      0.001     0.763     0.011     0.002
   01/01/2000 23:20:00      0.001     0.762     0.011     0.002
   01/01/2000 23:25:00      0.001     0.761     0.011     0.002
   01/01/2000 23:30:00      0.001     0.759     0.011     0.002
   01/01/2000 23:35:00      0.001     0.758     0.011     0.002
   01/01/2000 23:40:00      0.001     0.757     0.011     0.002
   01/01/2000 23:45:00      0.001     0.756     0.011     0.002
   01/01/2000 23:50:00      0.001     0.755     0.010     0.002
   01/01/2000 23:55:00      0.001     0.754     0.010     0.002
   01/02/2000 00:00:00      0.001     0.753     0.010     0.002
  

  Analysis begun on:  Mon Dec  9 19:40:59 2019
  Analysis ended on:  Mon Dec  9 19:40:59 2019
  Total elapsed time: < 1 sec