
  EPA STORM WATER MANAGEMENT MODEL - VERSION 5.1 (Build 5.1.013)
  --------------------------------------------------------------

  WARNING 03: negative offset ignored for Link C10.67
  WARNING 03: negative offset ignored for Link C151
  WARNING 03: negative offset ignored for Link C152
  WARNING 04: minimum elevation drop used for Conduit CJ1051.176
  WARNING 04: minimum elevation drop used for Conduit CJ1626.345
  WARNING 04: minimum elevation drop used for Conduit CJ1667.691
  WARNING 04: minimum elevation drop used for Conduit CJ1734.993
  WARNING 04: minimum elevation drop used for Conduit CJ200.09
  WARNING 04: minimum elevation drop used for Conduit CJ2434.395
  WARNING 04: minimum elevation drop used for Conduit CJ2503.915
  WARNING 04: minimum elevation drop used for Conduit CJ3218.863
  WARNING 04: minimum elevation drop used for Conduit CJ3265.206
  WARNING 04: minimum elevation drop used for Conduit CJ3453.308
  WARNING 04: minimum elevation drop used for Conduit CJ3500.20
  WARNING 04: minimum elevation drop used for Conduit CJ3570.062
  WARNING 04: minimum elevation drop used for Conduit CJ3580.966
  WARNING 04: minimum elevation drop used for Conduit CJ3742.784
  WARNING 04: minimum elevation drop used for Conduit CJ4019.03_HC
  WARNING 04: minimum elevation drop used for Conduit CJ4034.607
  WARNING 04: minimum elevation drop used for Conduit CJ4045.227
  WARNING 04: minimum elevation drop used for Conduit CJ4112.991
  WARNING 04: minimum elevation drop used for Conduit CJ4112.991_HC
  WARNING 04: minimum elevation drop used for Conduit CJ4153.677
  WARNING 04: minimum elevation drop used for Conduit CJ4255.003
  WARNING 04: minimum elevation drop used for Conduit CJ4300.20
  WARNING 04: minimum elevation drop used for Conduit CJ4300.25
  WARNING 04: minimum elevation drop used for Conduit CJ4400.20
  WARNING 04: minimum elevation drop used for Conduit CJ4400.25
  WARNING 04: minimum elevation drop used for Conduit CJ4436.307
  WARNING 04: minimum elevation drop used for Conduit CJ4498.651
  WARNING 04: minimum elevation drop used for Conduit CJ4498.652
  WARNING 04: minimum elevation drop used for Conduit CJ4524.948
  WARNING 04: minimum elevation drop used for Conduit CJ454.8528
  WARNING 04: minimum elevation drop used for Conduit CJ4584.343
  WARNING 04: minimum elevation drop used for Conduit CJ4608.320
  WARNING 04: minimum elevation drop used for Conduit CJ4630.583
  WARNING 04: minimum elevation drop used for Conduit CJ4760.912
  WARNING 04: minimum elevation drop used for Conduit CJ487.7520
  WARNING 04: minimum elevation drop used for Conduit CJ4900.25
  WARNING 04: minimum elevation drop used for Conduit CJ4933.290
  WARNING 04: minimum elevation drop used for Conduit CJ523.1179
  WARNING 04: minimum elevation drop used for Conduit CJ5246.372
  WARNING 04: minimum elevation drop used for Conduit CJ5660.181
  WARNING 04: minimum elevation drop used for Conduit CJ5705.508
  WARNING 04: minimum elevation drop used for Conduit CJ595.3819
  WARNING 04: minimum elevation drop used for Conduit CJ60.22
  WARNING 04: minimum elevation drop used for Conduit CJ6055.417
  WARNING 04: minimum elevation drop used for Conduit CJ6106.137
  WARNING 04: minimum elevation drop used for Conduit CJ6106.137_HC
  WARNING 04: minimum elevation drop used for Conduit CJ6121.368
  WARNING 04: minimum elevation drop used for Conduit CJ6200.2
  WARNING 04: minimum elevation drop used for Conduit CJ6621.406
  WARNING 04: minimum elevation drop used for Conduit CJ6651.313
  WARNING 04: minimum elevation drop used for Conduit CJ6845.150
  WARNING 04: minimum elevation drop used for Conduit CJ7.227846
  WARNING 04: minimum elevation drop used for Conduit CJ7.899100
  WARNING 04: minimum elevation drop used for Conduit CJ749.08
  WARNING 04: minimum elevation drop used for Conduit CJ783.0354
  WARNING 04: minimum elevation drop used for Conduit CJ800.239_HC
  WARNING 04: minimum elevation drop used for Conduit CJ999.9999
  WARNING 03: negative offset ignored for Link OL4
  WARNING 03: negative offset ignored for Link OL8
  WARNING 02: maximum depth increased for Node 21
  WARNING 02: maximum depth increased for Node 22
  WARNING 02: maximum depth increased for Node 25
  WARNING 02: maximum depth increased for Node J100.17
  WARNING 02: maximum depth increased for Node J1012.195
  WARNING 02: maximum depth increased for Node J1015.55
  WARNING 02: maximum depth increased for Node J1020.569
  WARNING 02: maximum depth increased for Node J1022.947
  WARNING 02: maximum depth increased for Node J1029.335
  WARNING 02: maximum depth increased for Node J1033.40
  WARNING 02: maximum depth increased for Node J1035.929
  WARNING 02: maximum depth increased for Node J1041.555
  WARNING 02: maximum depth increased for Node J1042.897
  WARNING 02: maximum depth increased for Node J1051.176
  WARNING 02: maximum depth increased for Node J1060.963
  WARNING 02: maximum depth increased for Node J1093.556
  WARNING 02: maximum depth increased for Node J1096.947
  WARNING 02: maximum depth increased for Node J1100
  WARNING 02: maximum depth increased for Node J1100.10
  WARNING 02: maximum depth increased for Node J1100.20
  WARNING 02: maximum depth increased for Node J1100.215
  WARNING 02: maximum depth increased for Node J1101.375
  WARNING 02: maximum depth increased for Node J1118.061
  WARNING 02: maximum depth increased for Node J113
  WARNING 02: maximum depth increased for Node J1130.117
  WARNING 02: maximum depth increased for Node J1144.055
  WARNING 02: maximum depth increased for Node J1144.426
  WARNING 02: maximum depth increased for Node J1151.075
  WARNING 02: maximum depth increased for Node J1154.80
  WARNING 02: maximum depth increased for Node J1163.689
  WARNING 02: maximum depth increased for Node J1178.27
  WARNING 02: maximum depth increased for Node J1200.117
  WARNING 02: maximum depth increased for Node J1200.17
  WARNING 02: maximum depth increased for Node J1200.25
  WARNING 02: maximum depth increased for Node J121.657
  WARNING 02: maximum depth increased for Node J1230.909
  WARNING 02: maximum depth increased for Node J1246.464
  WARNING 02: maximum depth increased for Node J1248.083
  WARNING 02: maximum depth increased for Node J125.38
  WARNING 02: maximum depth increased for Node J1286.17
  WARNING 02: maximum depth increased for Node J129.9666
  WARNING 02: maximum depth increased for Node J1294.225
  WARNING 02: maximum depth increased for Node J1298.178
  WARNING 02: maximum depth increased for Node J1299.999
  WARNING 02: maximum depth increased for Node J1300
  WARNING 02: maximum depth increased for Node J1300.117
  WARNING 02: maximum depth increased for Node J1300.17
  WARNING 02: maximum depth increased for Node J1305.379
  WARNING 02: maximum depth increased for Node J1310.18
  WARNING 02: maximum depth increased for Node J1348.30
  WARNING 02: maximum depth increased for Node J1365.595
  WARNING 02: maximum depth increased for Node J1391.170
  WARNING 02: maximum depth increased for Node J1393.48
  WARNING 02: maximum depth increased for Node J1400.000
  WARNING 02: maximum depth increased for Node J1400.117
  WARNING 02: maximum depth increased for Node J1400.20
  WARNING 02: maximum depth increased for Node J1400.239
  WARNING 02: maximum depth increased for Node J1400.25
  WARNING 02: maximum depth increased for Node J1447.009
  WARNING 02: maximum depth increased for Node J145.135
  WARNING 02: maximum depth increased for Node J148.0308
  WARNING 02: maximum depth increased for Node J1495.303
  WARNING 02: maximum depth increased for Node J1500.000
  WARNING 02: maximum depth increased for Node J1500.117
  WARNING 02: maximum depth increased for Node J151
  WARNING 02: maximum depth increased for Node J1518.067
  WARNING 02: maximum depth increased for Node J1541.43
  WARNING 02: maximum depth increased for Node J1546.464
  WARNING 02: maximum depth increased for Node J155.7196
  WARNING 02: maximum depth increased for Node J1567.909
  WARNING 02: maximum depth increased for Node J1599.10
  WARNING 02: maximum depth increased for Node J16.09606
  WARNING 02: maximum depth increased for Node J16.935
  WARNING 02: maximum depth increased for Node J1602.427
  WARNING 02: maximum depth increased for Node J162.45
  WARNING 02: maximum depth increased for Node J1626.345
  WARNING 02: maximum depth increased for Node J1660.15
  WARNING 02: maximum depth increased for Node J1667.691
  WARNING 02: maximum depth increased for Node J1668.083
  WARNING 02: maximum depth increased for Node J1700.10
  WARNING 02: maximum depth increased for Node J1700.117
  WARNING 02: maximum depth increased for Node J1700.17
  WARNING 02: maximum depth increased for Node J1715.436
  WARNING 02: maximum depth increased for Node J1715.718
  WARNING 02: maximum depth increased for Node J1742.723
  WARNING 02: maximum depth increased for Node J1749.279
  WARNING 02: maximum depth increased for Node J1797.21
  WARNING 02: maximum depth increased for Node J1799.999
  WARNING 02: maximum depth increased for Node J1800
  WARNING 02: maximum depth increased for Node J1800.10
  WARNING 02: maximum depth increased for Node J1800.117
  WARNING 02: maximum depth increased for Node J1800.229
  WARNING 02: maximum depth increased for Node J1816.580
  WARNING 02: maximum depth increased for Node J1820.140
  WARNING 02: maximum depth increased for Node J183
  WARNING 02: maximum depth increased for Node J185
  WARNING 02: maximum depth increased for Node J186
  WARNING 02: maximum depth increased for Node J1889.709
  WARNING 02: maximum depth increased for Node J1900
  WARNING 02: maximum depth increased for Node J1900.17
  WARNING 02: maximum depth increased for Node J1900.229
  WARNING 02: maximum depth increased for Node J1902.476
  WARNING 02: maximum depth increased for Node J1917.479
  WARNING 02: maximum depth increased for Node J1927.647
  WARNING 02: maximum depth increased for Node J193
  WARNING 02: maximum depth increased for Node J1930.658
  WARNING 02: maximum depth increased for Node J1938.662
  WARNING 02: maximum depth increased for Node J1942.494
  WARNING 02: maximum depth increased for Node J1952.554
  WARNING 02: maximum depth increased for Node J198
  WARNING 02: maximum depth increased for Node J2.1
  WARNING 02: maximum depth increased for Node J200.09
  WARNING 02: maximum depth increased for Node J200.17
  WARNING 02: maximum depth increased for Node J200.20
  WARNING 02: maximum depth increased for Node J200.215
  WARNING 02: maximum depth increased for Node J200.239
  WARNING 02: maximum depth increased for Node J2000.10
  WARNING 02: maximum depth increased for Node J2000.17
  WARNING 02: maximum depth increased for Node J2000.20
  WARNING 02: maximum depth increased for Node J2000.229
  WARNING 02: maximum depth increased for Node J2000.25
  WARNING 02: maximum depth increased for Node J2046.464
  WARNING 02: maximum depth increased for Node J2081.98
  WARNING 02: maximum depth increased for Node J2100.10
  WARNING 02: maximum depth increased for Node J2100.229
  WARNING 02: maximum depth increased for Node J2100.25
  WARNING 02: maximum depth increased for Node J2118.174
  WARNING 02: maximum depth increased for Node J2120.26
  WARNING 02: maximum depth increased for Node J2126.4
  WARNING 02: maximum depth increased for Node J2128.867
  WARNING 02: maximum depth increased for Node J2155.5
  WARNING 02: maximum depth increased for Node J216
  WARNING 02: maximum depth increased for Node J2162.390
  WARNING 02: maximum depth increased for Node J2165.306
  WARNING 02: maximum depth increased for Node J2167
  WARNING 02: maximum depth increased for Node J2171.407
  WARNING 02: maximum depth increased for Node J2173.272
  WARNING 02: maximum depth increased for Node J2177.86
  WARNING 02: maximum depth increased for Node J218
  WARNING 02: maximum depth increased for Node J2185.476
  WARNING 02: maximum depth increased for Node J2187.585
  WARNING 02: maximum depth increased for Node J2206.53
  WARNING 02: maximum depth increased for Node J2213.506
  WARNING 02: maximum depth increased for Node J2223.267
  WARNING 02: maximum depth increased for Node J2224.630
  WARNING 02: maximum depth increased for Node J2227.161
  WARNING 02: maximum depth increased for Node J2230.806
  WARNING 02: maximum depth increased for Node J2246.37
  WARNING 02: maximum depth increased for Node J226.077
  WARNING 02: maximum depth increased for Node J2266.899
  WARNING 02: maximum depth increased for Node J2267.81
  WARNING 02: maximum depth increased for Node J2287.052
  WARNING 02: maximum depth increased for Node J2292.097
  WARNING 02: maximum depth increased for Node J2296.492
  WARNING 02: maximum depth increased for Node J2300.10
  WARNING 02: maximum depth increased for Node J2320.843
  WARNING 02: maximum depth increased for Node J2326.414
  WARNING 02: maximum depth increased for Node J2331.99
  WARNING 02: maximum depth increased for Node J2337
  WARNING 02: maximum depth increased for Node J2346.464
  WARNING 02: maximum depth increased for Node J2359.439
  WARNING 02: maximum depth increased for Node J2376.910
  WARNING 02: maximum depth increased for Node J238
  WARNING 02: maximum depth increased for Node J2391.051
  WARNING 02: maximum depth increased for Node J2411.26
  WARNING 02: maximum depth increased for Node J2446.464
  WARNING 02: maximum depth increased for Node J2447.455
  WARNING 02: maximum depth increased for Node J246.4641
  WARNING 02: maximum depth increased for Node J246.585
  WARNING 02: maximum depth increased for Node J2465.522
  WARNING 02: maximum depth increased for Node J2477.264
  WARNING 02: maximum depth increased for Node J250.67
  WARNING 02: maximum depth increased for Node J2500
  WARNING 02: maximum depth increased for Node J2500.10
  WARNING 02: maximum depth increased for Node J2500.16
  WARNING 02: maximum depth increased for Node J252
  WARNING 02: maximum depth increased for Node J2528.637
  WARNING 02: maximum depth increased for Node J2532.899
  WARNING 02: maximum depth increased for Node J2535.77
  WARNING 02: maximum depth increased for Node J2540.48
  WARNING 02: maximum depth increased for Node J2546.464
  WARNING 02: maximum depth increased for Node J2547.594
  WARNING 02: maximum depth increased for Node J2559.518
  WARNING 02: maximum depth increased for Node J2594.793
  WARNING 02: maximum depth increased for Node J2600.16
  WARNING 02: maximum depth increased for Node J2603.25
  WARNING 02: maximum depth increased for Node J2604.897
  WARNING 02: maximum depth increased for Node J2646.738
  WARNING 02: maximum depth increased for Node J265.297
  WARNING 02: maximum depth increased for Node J2650.52
  WARNING 02: maximum depth increased for Node J2662.919
  WARNING 02: maximum depth increased for Node J2666.88
  WARNING 02: maximum depth increased for Node J2698.001
  WARNING 02: maximum depth increased for Node J27.45592
  WARNING 02: maximum depth increased for Node J2706.457
  WARNING 02: maximum depth increased for Node J271.7621
  WARNING 02: maximum depth increased for Node J2723.864
  WARNING 02: maximum depth increased for Node J2737.311
  WARNING 02: maximum depth increased for Node J2742.526
  WARNING 02: maximum depth increased for Node J2744.16
  WARNING 02: maximum depth increased for Node J2746.464
  WARNING 02: maximum depth increased for Node J2757.35
  WARNING 02: maximum depth increased for Node J2795.45
  WARNING 02: maximum depth increased for Node J2800
  WARNING 02: maximum depth increased for Node J2809.59
  WARNING 02: maximum depth increased for Node J2843.745
  WARNING 02: maximum depth increased for Node J2849.017
  WARNING 02: maximum depth increased for Node J2864.348
  WARNING 02: maximum depth increased for Node J2888.560
  WARNING 02: maximum depth increased for Node J2892.413
  WARNING 02: maximum depth increased for Node J290.5
  WARNING 02: maximum depth increased for Node J2900
  WARNING 02: maximum depth increased for Node J2900.09
  WARNING 02: maximum depth increased for Node J2900.117
  WARNING 02: maximum depth increased for Node J2900.16
  WARNING 02: maximum depth increased for Node J2902.731
  WARNING 02: maximum depth increased for Node J2908.990
  WARNING 02: maximum depth increased for Node J2919.088
  WARNING 02: maximum depth increased for Node J2946.464
  WARNING 02: maximum depth increased for Node J2989.647
  WARNING 02: maximum depth increased for Node J2999.999
  WARNING 02: maximum depth increased for Node J3
  WARNING 02: maximum depth increased for Node j3.1
  WARNING 02: maximum depth increased for Node J300.09
  WARNING 02: maximum depth increased for Node J300.239
  WARNING 02: maximum depth increased for Node J3000.09
  WARNING 02: maximum depth increased for Node J3000.117
  WARNING 02: maximum depth increased for Node J3000.16
  WARNING 02: maximum depth increased for Node J3007.922
  WARNING 02: maximum depth increased for Node J3008.665
  WARNING 02: maximum depth increased for Node J3035
  WARNING 02: maximum depth increased for Node J3045
  WARNING 02: maximum depth increased for Node J3051.067
  WARNING 02: maximum depth increased for Node J3054.885
  WARNING 02: maximum depth increased for Node J3066.327
  WARNING 02: maximum depth increased for Node J3073.705
  WARNING 02: maximum depth increased for Node J3098.703
  WARNING 02: maximum depth increased for Node J3100.16
  WARNING 02: maximum depth increased for Node J3103.867
  WARNING 02: maximum depth increased for Node J3105.432
  WARNING 02: maximum depth increased for Node J3111.594
  WARNING 02: maximum depth increased for Node J3135.52
  WARNING 02: maximum depth increased for Node J3148.25
  WARNING 02: maximum depth increased for Node J3150.013
  WARNING 02: maximum depth increased for Node J3158.17
  WARNING 02: maximum depth increased for Node J3172.921
  WARNING 02: maximum depth increased for Node J3200
  WARNING 02: maximum depth increased for Node J3200.117
  WARNING 02: maximum depth increased for Node J3200.16
  WARNING 02: maximum depth increased for Node J3202.874
  WARNING 02: maximum depth increased for Node J3221.88
  WARNING 02: maximum depth increased for Node J3237.56
  WARNING 02: maximum depth increased for Node J3244.446
  WARNING 02: maximum depth increased for Node J3246.464
  WARNING 02: maximum depth increased for Node J3249.537
  WARNING 02: maximum depth increased for Node J3262.17
  WARNING 02: maximum depth increased for Node J3265.205
  WARNING 02: maximum depth increased for Node J3265.206
  WARNING 02: maximum depth increased for Node J327.0741
  WARNING 02: maximum depth increased for Node J329
  WARNING 02: maximum depth increased for Node J3300
  WARNING 02: maximum depth increased for Node J3300.117
  WARNING 02: maximum depth increased for Node J3300.20
  WARNING 02: maximum depth increased for Node J3322.109
  WARNING 02: maximum depth increased for Node J3322.153
  WARNING 02: maximum depth increased for Node J3337.30
  WARNING 02: maximum depth increased for Node J3338.702
  WARNING 02: maximum depth increased for Node J3346.98
  WARNING 02: maximum depth increased for Node J3361.22
  WARNING 02: maximum depth increased for Node J3388.007
  WARNING 02: maximum depth increased for Node J3390.389
  WARNING 02: maximum depth increased for Node J3392.66
  WARNING 02: maximum depth increased for Node J3400
  WARNING 02: maximum depth increased for Node J3407.117
  WARNING 02: maximum depth increased for Node J3411.51
  WARNING 02: maximum depth increased for Node J3414.967
  WARNING 02: maximum depth increased for Node J3427.268
  WARNING 02: maximum depth increased for Node J3428.33
  WARNING 02: maximum depth increased for Node J3445.04
  WARNING 02: maximum depth increased for Node J3446.464
  WARNING 02: maximum depth increased for Node J349.449
  WARNING 02: maximum depth increased for Node J3492.153
  WARNING 02: maximum depth increased for Node J3500.1
  WARNING 02: maximum depth increased for Node J3500.117
  WARNING 02: maximum depth increased for Node J3500.20
  WARNING 02: maximum depth increased for Node J3500.25
  WARNING 02: maximum depth increased for Node J352.0823
  WARNING 02: maximum depth increased for Node J352.30
  WARNING 02: maximum depth increased for Node J3546.867
  WARNING 02: maximum depth increased for Node J3552.954
  WARNING 02: maximum depth increased for Node J3570.062
  WARNING 02: maximum depth increased for Node J3580.966
  WARNING 02: maximum depth increased for Node J3597.283
  WARNING 02: maximum depth increased for Node J3600
  WARNING 02: maximum depth increased for Node J3600.25
  WARNING 02: maximum depth increased for Node J3609.26
  WARNING 02: maximum depth increased for Node J3610.812
  WARNING 02: maximum depth increased for Node J3624.107
  WARNING 02: maximum depth increased for Node J3635.031
  WARNING 02: maximum depth increased for Node J3667.068
  WARNING 02: maximum depth increased for Node J3677.11
  WARNING 02: maximum depth increased for Node J3685.955
  WARNING 02: maximum depth increased for Node J3692.563
  WARNING 02: maximum depth increased for Node J3696.22
  WARNING 02: maximum depth increased for Node J3699.999
  WARNING 02: maximum depth increased for Node J3709.655
  WARNING 02: maximum depth increased for Node J3717.833
  WARNING 02: maximum depth increased for Node J3742.784
  WARNING 02: maximum depth increased for Node J3770.893
  WARNING 02: maximum depth increased for Node J3780.99
  WARNING 02: maximum depth increased for Node J3800.20
  WARNING 02: maximum depth increased for Node J3802.9
  WARNING 02: maximum depth increased for Node J3811.191
  WARNING 02: maximum depth increased for Node J3825.668
  WARNING 02: maximum depth increased for Node J3843.650
  WARNING 02: maximum depth increased for Node J3846.464
  WARNING 02: maximum depth increased for Node J388.5779
  WARNING 02: maximum depth increased for Node J3900.25
  WARNING 02: maximum depth increased for Node J3932.07
  WARNING 02: maximum depth increased for Node J3947.67
  WARNING 02: maximum depth increased for Node J3952.221
  WARNING 02: maximum depth increased for Node J396.6188
  WARNING 02: maximum depth increased for Node J3963.610
  WARNING 02: maximum depth increased for Node J4
  WARNING 02: maximum depth increased for Node J4.1
  WARNING 02: maximum depth increased for Node J4.5
  WARNING 02: maximum depth increased for Node J4.55
  WARNING 02: maximum depth increased for Node J4.56
  WARNING 02: maximum depth increased for Node J4.6
  WARNING 02: maximum depth increased for Node J4.7
  WARNING 02: maximum depth increased for Node J4.75
  WARNING 02: maximum depth increased for Node J400.127
  WARNING 02: maximum depth increased for Node J400.215
  WARNING 02: maximum depth increased for Node J400.239
  WARNING 02: maximum depth increased for Node J4000.20
  WARNING 02: maximum depth increased for Node J4014.677
  WARNING 02: maximum depth increased for Node J4019.03
  WARNING 02: maximum depth increased for Node J402.1469
  WARNING 02: maximum depth increased for Node J4021.866
  WARNING 02: maximum depth increased for Node J4034.42
  WARNING 02: maximum depth increased for Node J4034.607
  WARNING 02: maximum depth increased for Node J404.225
  WARNING 02: maximum depth increased for Node J4045.227
  WARNING 02: maximum depth increased for Node J4065.910
  WARNING 02: maximum depth increased for Node J4067.080
  WARNING 02: maximum depth increased for Node J410.6635
  WARNING 02: maximum depth increased for Node J4100
  WARNING 02: maximum depth increased for Node J4100.11
  WARNING 02: maximum depth increased for Node J4100.962
  WARNING 02: maximum depth increased for Node J4112.991
  WARNING 02: maximum depth increased for Node J4153.677
  WARNING 02: maximum depth increased for Node J4184.01
  WARNING 02: maximum depth increased for Node J4200
  WARNING 02: maximum depth increased for Node J4200.20
  WARNING 02: maximum depth increased for Node J4200.25
  WARNING 02: maximum depth increased for Node J4232.339
  WARNING 02: maximum depth increased for Node J4255.003
  WARNING 02: maximum depth increased for Node J427.7351
  WARNING 02: maximum depth increased for Node J4271.41
  WARNING 02: maximum depth increased for Node J4300.20
  WARNING 02: maximum depth increased for Node J4300.25
  WARNING 02: maximum depth increased for Node J4330.11
  WARNING 02: maximum depth increased for Node J4347.009
  WARNING 02: maximum depth increased for Node J438.5957
  WARNING 02: maximum depth increased for Node J4395.415
  WARNING 02: maximum depth increased for Node J4396.23
  WARNING 02: maximum depth increased for Node J440.72
  WARNING 02: maximum depth increased for Node J4400.20
  WARNING 02: maximum depth increased for Node J4400.25
  WARNING 02: maximum depth increased for Node J4411.37
  WARNING 02: maximum depth increased for Node J4436.307
  WARNING 02: maximum depth increased for Node J4446.464
  WARNING 02: maximum depth increased for Node J446
  WARNING 02: maximum depth increased for Node J4477.44
  WARNING 02: maximum depth increased for Node J4498.651
  WARNING 02: maximum depth increased for Node J4498.652
  WARNING 02: maximum depth increased for Node J4511.243
  WARNING 02: maximum depth increased for Node J452.879
  WARNING 02: maximum depth increased for Node J4529.29
  WARNING 02: maximum depth increased for Node J4541.851
  WARNING 02: maximum depth increased for Node J4546.464
  WARNING 02: maximum depth increased for Node J4569.028
  WARNING 02: maximum depth increased for Node J4584.343
  WARNING 02: maximum depth increased for Node J4596.187
  WARNING 02: maximum depth increased for Node J4600.10
  WARNING 02: maximum depth increased for Node J461.85
  WARNING 02: maximum depth increased for Node J4630.583
  WARNING 02: maximum depth increased for Node J4635.43
  WARNING 02: maximum depth increased for Node J4646.464
  WARNING 02: maximum depth increased for Node J4668.109
  WARNING 02: maximum depth increased for Node J4700.22
  WARNING 02: maximum depth increased for Node J4731.82
  WARNING 02: maximum depth increased for Node J4760.912
  WARNING 02: maximum depth increased for Node J477.657
  WARNING 02: maximum depth increased for Node J4800.10
  WARNING 02: maximum depth increased for Node J4800.20
  WARNING 02: maximum depth increased for Node J4838.848
  WARNING 02: maximum depth increased for Node J4846.464
  WARNING 02: maximum depth increased for Node J488.6925
  WARNING 02: maximum depth increased for Node J4900.10
  WARNING 02: maximum depth increased for Node J4900.20
  WARNING 02: maximum depth increased for Node J4900.25
  WARNING 02: maximum depth increased for Node J4933.290
  WARNING 02: maximum depth increased for Node J4935
  WARNING 02: maximum depth increased for Node J4945.903
  WARNING 02: maximum depth increased for Node J4957.289
  WARNING 02: maximum depth increased for Node J498.2611
  WARNING 02: maximum depth increased for Node J5
  WARNING 02: maximum depth increased for Node J5.1
  WARNING 02: maximum depth increased for Node J5.2
  WARNING 02: maximum depth increased for Node J500.239
  WARNING 02: maximum depth increased for Node J500.25
  WARNING 02: maximum depth increased for Node J5000.10
  WARNING 02: maximum depth increased for Node J5000.20
  WARNING 02: maximum depth increased for Node J501.0021
  WARNING 02: maximum depth increased for Node J5046.464
  WARNING 02: maximum depth increased for Node J5048.723
  WARNING 02: maximum depth increased for Node J506.895
  WARNING 02: maximum depth increased for Node J5100.10
  WARNING 02: maximum depth increased for Node J5118.131
  WARNING 02: maximum depth increased for Node J512.9811
  WARNING 02: maximum depth increased for Node J515.5250
  WARNING 02: maximum depth increased for Node J5152.642
  WARNING 02: maximum depth increased for Node J516.02
  WARNING 02: maximum depth increased for Node J5226.563
  WARNING 02: maximum depth increased for Node J5260.956
  WARNING 02: maximum depth increased for Node J5300.10
  WARNING 02: maximum depth increased for Node J531.73
  WARNING 02: maximum depth increased for Node J534.23
  WARNING 02: maximum depth increased for Node J5400.10
  WARNING 02: maximum depth increased for Node J5400.20
  WARNING 02: maximum depth increased for Node J5427.875
  WARNING 02: maximum depth increased for Node J546.4642
  WARNING 02: maximum depth increased for Node J546.6221
  WARNING 02: maximum depth increased for Node J5500.10
  WARNING 02: maximum depth increased for Node J5500.20
  WARNING 02: maximum depth increased for Node J5532.597
  WARNING 02: maximum depth increased for Node J554.879
  WARNING 02: maximum depth increased for Node J5543.03
  WARNING 02: maximum depth increased for Node J5581.81
  WARNING 02: maximum depth increased for Node J5598.608
  WARNING 02: maximum depth increased for Node J5600.20
  WARNING 02: maximum depth increased for Node J5627.203
  WARNING 02: maximum depth increased for Node J5660.181
  WARNING 02: maximum depth increased for Node J570.5971
  WARNING 02: maximum depth increased for Node J571.927
  WARNING 02: maximum depth increased for Node J5746.464
  WARNING 02: maximum depth increased for Node J5816.245
  WARNING 02: maximum depth increased for Node J5839.625
  WARNING 02: maximum depth increased for Node J5869.256
  WARNING 02: maximum depth increased for Node J5899.999
  WARNING 02: maximum depth increased for Node J591.0980
  WARNING 02: maximum depth increased for Node J5942.698
  WARNING 02: maximum depth increased for Node J5946.083
  WARNING 02: maximum depth increased for Node J595.3819
  WARNING 02: maximum depth increased for Node J599.9999
  WARNING 02: maximum depth increased for Node J6
  WARNING 02: maximum depth increased for Node J6.2
  WARNING 02: maximum depth increased for Node J6.227
  WARNING 02: maximum depth increased for Node J60.22
  WARNING 02: maximum depth increased for Node J600.17
  WARNING 02: maximum depth increased for Node J6000.20
  WARNING 02: maximum depth increased for Node J6040.300
  WARNING 02: maximum depth increased for Node J6055.417
  WARNING 02: maximum depth increased for Node J6098.928
  WARNING 02: maximum depth increased for Node J6106.137
  WARNING 02: maximum depth increased for Node J6121.368
  WARNING 02: maximum depth increased for Node J6152.898
  WARNING 02: maximum depth increased for Node J6165.560
  WARNING 02: maximum depth increased for Node J6242.021
  WARNING 02: maximum depth increased for Node J625.125
  WARNING 02: maximum depth increased for Node J6301.693
  WARNING 02: maximum depth increased for Node J634.217
  WARNING 02: maximum depth increased for Node J6352.562
  WARNING 02: maximum depth increased for Node J638.21
  WARNING 02: maximum depth increased for Node J639.57
  WARNING 02: maximum depth increased for Node J6435.935
  WARNING 02: maximum depth increased for Node J6455.909
  WARNING 02: maximum depth increased for Node J646.4641
  WARNING 02: maximum depth increased for Node J647.627
  WARNING 02: maximum depth increased for Node J6478.273
  WARNING 02: maximum depth increased for Node J651.4387
  WARNING 02: maximum depth increased for Node J6518.760
  WARNING 02: maximum depth increased for Node J6538.791
  WARNING 02: maximum depth increased for Node J6565.562
  WARNING 02: maximum depth increased for Node J657.28
  WARNING 02: maximum depth increased for Node J6599.053
  WARNING 02: maximum depth increased for Node J6621.406
  WARNING 02: maximum depth increased for Node J6651.313
  WARNING 02: maximum depth increased for Node J6662.639
  WARNING 02: maximum depth increased for Node J6700.2
  WARNING 02: maximum depth increased for Node J674.5680
  WARNING 02: maximum depth increased for Node J674.6
  WARNING 02: maximum depth increased for Node J6772.934
  WARNING 02: maximum depth increased for Node J679.8
  WARNING 02: maximum depth increased for Node J6800.2
  WARNING 02: maximum depth increased for Node J684.977
  WARNING 02: maximum depth increased for Node J6845.150
  WARNING 02: maximum depth increased for Node J6846.464
  WARNING 02: maximum depth increased for Node J6894.028
  WARNING 02: maximum depth increased for Node J69.25231
  WARNING 02: maximum depth increased for Node J695.90
  WARNING 02: maximum depth increased for Node J6988.738
  WARNING 02: maximum depth increased for Node J7.227846
  WARNING 02: maximum depth increased for Node J7.899100
  WARNING 02: maximum depth increased for Node J700.239
  WARNING 02: maximum depth increased for Node J702.5914
  WARNING 02: maximum depth increased for Node J703.1630
  WARNING 02: maximum depth increased for Node J706.81
  WARNING 02: maximum depth increased for Node J71.72631
  WARNING 02: maximum depth increased for Node J712.5684
  WARNING 02: maximum depth increased for Node J718.547
  WARNING 02: maximum depth increased for Node J7322.142
  WARNING 02: maximum depth increased for Node J737.045
  WARNING 02: maximum depth increased for Node J737.31
  WARNING 02: maximum depth increased for Node J738.7840
  WARNING 02: maximum depth increased for Node J7381.689
  WARNING 02: maximum depth increased for Node J74.135
  WARNING 02: maximum depth increased for Node J7449.270
  WARNING 02: maximum depth increased for Node J746.4641
  WARNING 02: maximum depth increased for Node J7549.375
  WARNING 02: maximum depth increased for Node J7639.745
  WARNING 02: maximum depth increased for Node J768.179
  WARNING 02: maximum depth increased for Node J772.7612
  WARNING 02: maximum depth increased for Node J7752.183
  WARNING 02: maximum depth increased for Node J783.0354
  WARNING 02: maximum depth increased for Node J794.7359
  WARNING 02: maximum depth increased for Node J795.635
  WARNING 02: maximum depth increased for Node J799.60
  WARNING 02: maximum depth increased for Node J80.68134
  WARNING 02: maximum depth increased for Node J80.89927
  WARNING 02: maximum depth increased for Node J800.0000
  WARNING 02: maximum depth increased for Node J800.117
  WARNING 02: maximum depth increased for Node J800.239
  WARNING 02: maximum depth increased for Node J82.94
  WARNING 02: maximum depth increased for Node J846.4642
  WARNING 02: maximum depth increased for Node J855.869
  WARNING 02: maximum depth increased for Node J876.147
  WARNING 02: maximum depth increased for Node J886.2880
  WARNING 02: maximum depth increased for Node J900.10
  WARNING 02: maximum depth increased for Node J900.239
  WARNING 02: maximum depth increased for Node J902.1607
  WARNING 02: maximum depth increased for Node J904.90
  WARNING 02: maximum depth increased for Node J91.52667
  WARNING 02: maximum depth increased for Node J922.9622
  WARNING 02: maximum depth increased for Node J924.0624
  WARNING 02: maximum depth increased for Node J929.29
  WARNING 02: maximum depth increased for Node J937.8583
  WARNING 02: maximum depth increased for Node J945.497
  WARNING 02: maximum depth increased for Node J955.93
  WARNING 02: maximum depth increased for Node J963.549
  WARNING 02: maximum depth increased for Node J964.46
  WARNING 02: maximum depth increased for Node J982.0328
  WARNING 02: maximum depth increased for Node J99.99998
  WARNING 02: maximum depth increased for Node J992.03
  WARNING 02: maximum depth increased for Node J999.9999
  
  *********************************************************
  NOTE: The summary statistics displayed in this report are
  based on results found at every computational time step,  
  not just on results from each reporting time step.
  *********************************************************
  
  ****************
  Analysis Options
  ****************
  Flow Units ............... CMS
  Process Models:
    Rainfall/Runoff ........ YES
    RDII ................... NO
    Snowmelt ............... YES
    Groundwater ............ NO
    Flow Routing ........... YES
    Ponding Allowed ........ YES
    Water Quality .......... NO
  Infiltration Method ...... GREEN_AMPT
  Flow Routing Method ...... DYNWAVE
  Surcharge Method ......... EXTRAN
  Starting Date ............ 08/10/2019 00:00:00
  Ending Date .............. 08/11/2019 23:59:55
  Antecedent Dry Days ...... 0.0
  Report Time Step ......... 00:05:00
  Wet Time Step ............ 00:05:00
  Dry Time Step ............ 00:05:00
  Routing Time Step ........ 5.00 sec
  Variable Time Step ....... YES
  Maximum Trials ........... 8
  Number of Threads ........ 14
  Head Tolerance ........... 0.001500 m
  
  
  **************************        Volume         Depth
  Runoff Quantity Continuity     hectare-m            mm
  **************************     ---------       -------
  Initial Snow Cover .......         0.000         0.000
  Total Precipitation ......         0.000         0.000
  Evaporation Loss .........         0.000         0.000
  Infiltration Loss ........         0.000         0.000
  Surface Runoff ...........         0.000         0.000
  Snow Removed .............         0.000         0.000
  Final Snow Cover .........         0.000         0.000
  Final Storage ............          -nan          -nan
  Continuity Error (%) .....         0.000
  
  
  **************************        Volume        Volume
  Flow Routing Continuity        hectare-m      10^6 ltr
  **************************     ---------     ---------
  Dry Weather Inflow .......         0.000         0.000
  Wet Weather Inflow .......         0.000         0.000
  Groundwater Inflow .......         0.000         0.000
  RDII Inflow ..............         0.000         0.000
  External Inflow ..........         1.281        12.811
  External Outflow .........        13.230       132.301
  Flooding Loss ............         0.000         0.000
  Evaporation Loss .........         0.000         0.000
  Exfiltration Loss ........         0.000         0.000
  Initial Stored Volume ....        17.228       172.283
  Final Stored Volume ......         4.916        49.161
  Continuity Error (%) .....         1.963
  
  
  *************************
  Highest Continuity Errors
  *************************
  Node J6000.20 (94.11%)
  Node J5942.698 (67.61%)
  Node SU211 (-34.89%)
  Node J16.09606 (34.25%)
  Node J27.45592 (9.34%)
  
  
  ***************************
  Time-Step Critical Elements
  ***************************
  Link CJ6.227 (75.23%)
  Link CJ3717.833 (23.67%)
  
  
  ********************************
  Highest Flow Instability Indexes
  ********************************
  Link OL16 (29)
  Link CJ36.529 (26)
  Link CJ6988.738 (7)
  Link CJ6894.028 (5)
  Link CJ794.7359 (1)
  
  
  *************************
  Routing Time Step Summary
  *************************
  Minimum Time Step           :     0.26 sec
  Average Time Step           :     2.28 sec
  Maximum Time Step           :     2.77 sec
  Percent in Steady State     :    -0.00
  Average Iterations per Step :     2.30
  Percent Not Converging      :     0.01
  
  
  ***************************
  Subcatchment Runoff Summary
  ***************************
  
  ------------------------------------------------------------------------------------------------------------------------------
                            Total      Total      Total      Total     Imperv       Perv      Total       Total     Peak  Runoff
                           Precip      Runon       Evap      Infil     Runoff     Runoff     Runoff      Runoff   Runoff   Coeff
  Subcatchment                 mm         mm         mm         mm         mm         mm         mm    10^6 ltr      CMS
  ------------------------------------------------------------------------------------------------------------------------------
  405                        0.00       0.00       0.00       0.00       0.00       0.00       0.00        0.00     0.00   0.000
  410_1                      0.00       0.00       0.00       0.00       0.00       0.00       0.00        0.00     0.00   0.000
  410_2                      0.00       0.00       0.00       0.00       0.00       0.00       0.00        0.00     0.00   0.000
  411                        0.00       0.00       0.00       0.00       0.00       0.00       0.00        0.00     0.00   0.000
  S101                       0.00       0.00       0.00       0.00       0.00       0.00       0.00        0.00     0.00   0.000
  S102                       0.00       0.00       0.00       0.00       0.00       0.00       0.00        0.00     0.00   0.000
  S103                       0.00       0.00       0.00       0.00       0.00       0.00       0.00        0.00     0.00   0.000
  S104                       0.00       0.00       0.00       0.00       0.00       0.00       0.00        0.00     0.00   0.000
  S105                       0.00       0.00       0.00       0.00       0.00       0.00       0.00        0.00     0.00   0.000
  S106                       0.00       0.00       0.00       0.00       0.00       0.00       0.00        0.00     0.00   0.000
  S107                       0.00       0.00       0.00       0.00       0.00       0.00       0.00        0.00     0.00   0.000
  S108                       0.00       0.00       0.00       0.00       0.00       0.00       0.00        0.00     0.00   0.000
  S109                       0.00       0.00       0.00       0.00       0.00       0.00       0.00        0.00     0.00   0.000
  S110                       0.00       0.00       0.00       0.00       0.00       0.00       0.00        0.00     0.00   0.000
  S111                       0.00       0.00       0.00       0.00       0.00       0.00       0.00        0.00     0.00   0.000
  S112                       0.00       0.00       0.00       0.00       0.00       0.00       0.00        0.00     0.00   0.000
  S113                       0.00       0.00       0.00       0.00       0.00       0.00       0.00        0.00     0.00   0.000
  S151                       0.00       0.00       0.00       0.00       0.00       0.00       0.00        0.00     0.00   0.000
  S152                       0.00       0.00       0.00       0.00       0.00       0.00       0.00        0.00     0.00   0.000
  S153                       0.00       0.00       0.00       0.00       0.00       0.00       0.00        0.00     0.00   0.000
  S154_1                     0.00       0.00       0.00       0.00       0.00       0.00       0.00        0.00     0.00   0.000
  S154_2                     0.00       0.00       0.00       0.00       0.00       0.00       0.00        0.00     0.00   0.000
  S155                       0.00       0.00       0.00       0.00       0.00       0.00       0.00        0.00     0.00   0.000
  S156                       0.00       0.00       0.00       0.00       0.00       0.00       0.00        0.00     0.00   0.000
  S157                       0.00       0.00       0.00       0.00       0.00       0.00       0.00        0.00     0.00   0.000
  S158                       0.00       0.00       0.00       0.00       0.00       0.00       0.00        0.00     0.00   0.000
  S159                       0.00       0.00       0.00       0.00       0.00       0.00       0.00        0.00     0.00   0.000
  S160                       0.00       0.00       0.00       0.00       0.00       0.00       0.00        0.00     0.00   0.000
  S161_1                     0.00       0.00       0.00       0.00       0.00       0.00       0.00        0.00     0.00   0.000
  S161_2                     0.00       0.00       0.00       0.00       0.00       0.00       0.00        0.00     0.00   0.000
  S162                       0.00       0.00       0.00       0.00       0.00       0.00       0.00        0.00     0.00   0.000
  S163                       0.00       0.00       0.00       0.00       0.00       0.00       0.00        0.00     0.00   0.000
  S164                       0.00       0.00       0.00       0.00       0.00       0.00       0.00        0.00     0.00   0.000
  S165                       0.00       0.00       0.00       0.00       0.00       0.00       0.00        0.00     0.00   0.000
  S166                       0.00       0.00       0.00       0.00       0.00       0.00       0.00        0.00     0.00   0.000
  S167                       0.00       0.00       0.00       0.00       0.00       0.00       0.00        0.00     0.00   0.000
  S171                       0.00       0.00       0.00       0.00       0.00       0.00       0.00        0.00     0.00   0.000
  S172                       0.00       0.00       0.00       0.00       0.00       0.00       0.00        0.00     0.00   0.000
  S180                       0.00       0.00       0.00       0.00       0.00       0.00       0.00        0.00     0.00   0.000
  S181                       0.00       0.00       0.00       0.00       0.00       0.00       0.00        0.00     0.00   0.000
  S182                       0.00       0.00       0.00       0.00       0.00       0.00       0.00        0.00     0.00   0.000
  S183                       0.00       0.00       0.00       0.00       0.00       0.00       0.00        0.00     0.00   0.000
  S184                       0.00       0.00       0.00       0.00       0.00       0.00       0.00        0.00     0.00   0.000
  S185                       0.00       0.00       0.00       0.00       0.00       0.00       0.00        0.00     0.00   0.000
  S186                       0.00       0.00       0.00       0.00       0.00       0.00       0.00        0.00     0.00   0.000
  S187                       0.00       0.00       0.00       0.00       0.00       0.00       0.00        0.00     0.00   0.000
  S191                       0.00       0.00       0.00       0.00       0.00       0.00       0.00        0.00     0.00   0.000
  S192                       0.00       0.00       0.00       0.00       0.00       0.00       0.00        0.00     0.00   0.000
  S193                       0.00       0.00       0.00       0.00       0.00       0.00       0.00        0.00     0.00   0.000
  S194                       0.00       0.00       0.00       0.00       0.00       0.00       0.00        0.00     0.00   0.000
  S195                       0.00       0.00       0.00       0.00       0.00       0.00       0.00        0.00     0.00   0.000
  S201                       0.00       0.00       0.00       0.00       0.00       0.00       0.00        0.00     0.00   0.000
  S202                       0.00       0.00       0.00       0.00       0.00       0.00       0.00        0.00     0.00   0.000
  S203                       0.00       0.00       0.00       0.00       0.00       0.00       0.00        0.00     0.00   0.000
  S204                       0.00       0.00       0.00       0.00       0.00       0.00       0.00        0.00     0.00   0.000
  S205                       0.00       0.00       0.00       0.00       0.00       0.00       0.00        0.00     0.00   0.000
  S210                       0.00       0.00       0.00       0.00       0.00       0.00       0.00        0.00     0.00   0.000
  S211                       0.00       0.00       0.00       0.00       0.00       0.00       0.00        0.00     0.00   0.000
  S212                       0.00       0.00       0.00       0.00       0.00       0.00       0.00        0.00     0.00   0.000
  S213                       0.00       0.00       0.00       0.00       0.00       0.00       0.00        0.00     0.00   0.000
  S214                       0.00       0.00       0.00       0.00       0.00       0.00       0.00        0.00     0.00   0.000
  S215                       0.00       0.00       0.00       0.00       0.00       0.00       0.00        0.00     0.00   0.000
  S216                       0.00       0.00       0.00       0.00       0.00       0.00       0.00        0.00     0.00   0.000
  S220                       0.00       0.00       0.00       0.00       0.00       0.00       0.00        0.00     0.00   0.000
  S221                       0.00       0.00       0.00       0.00       0.00       0.00       0.00        0.00     0.00   0.000
  S301                       0.00       0.00       0.00       0.00       0.00       0.00       0.00        0.00     0.00   0.000
  S401                       0.00       0.00       0.00       0.00       0.00       0.00       0.00        0.00     0.00   0.000
  S402                       0.00       0.00       0.00       0.00       0.00       0.00       0.00        0.00     0.00   0.000
  S403                       0.00       0.00       0.00       0.00       0.00       0.00       0.00        0.00     0.00   0.000
  S404                       0.00       0.00       0.00       0.00       0.00       0.00       0.00        0.00     0.00   0.000
  S406                       0.00       0.00       0.00       0.00       0.00       0.00       0.00        0.00     0.00   0.000
  S407                       0.00       0.00       0.00       0.00       0.00       0.00       0.00        0.00     0.00   0.000
  S408                       0.00       0.00       0.00       0.00       0.00       0.00       0.00        0.00     0.00   0.000
  S409                       0.00       0.00       0.00       0.00       0.00       0.00       0.00        0.00     0.00   0.000
  S440                       0.00       0.00       0.00       0.00       0.00       0.00       0.00        0.00     0.00   0.000
  S441_1                     0.00       0.00       0.00       0.00       0.00       0.00       0.00        0.00     0.00   0.000
  S441_2                     0.00       0.00       0.00       0.00       0.00       0.00       0.00        0.00     0.00   0.000
  S442                       0.00       0.00       0.00       0.00       0.00       0.00       0.00        0.00     0.00   0.000
  S443                       0.00       0.00       0.00       0.00       0.00       0.00       0.00        0.00     0.00   0.000
  S444                       0.00       0.00       0.00       0.00       0.00       0.00       0.00        0.00     0.00   0.000
  S445                       0.00       0.00       0.00       0.00       0.00       0.00       0.00        0.00     0.00   0.000
  S446                       0.00       0.00       0.00       0.00       0.00       0.00       0.00        0.00     0.00   0.000
  S447                       0.00       0.00       0.00       0.00       0.00       0.00       0.00        0.00     0.00   0.000
  
  
  ******************
  Node Depth Summary
  ******************
  
  ---------------------------------------------------------------------------------
                                 Average  Maximum  Maximum  Time of Max    Reported
                                   Depth    Depth      HGL   Occurrence   Max Depth
  Node                 Type       Meters   Meters   Meters  days hr:min      Meters
  ---------------------------------------------------------------------------------
  21                   JUNCTION     0.21     0.58   104.79     0  03:02        0.58
  22                   JUNCTION     0.12     0.35   131.95     0  00:23        0.35
  23                   JUNCTION     0.16     0.41   127.17     0  00:28        0.41
  25                   JUNCTION     0.66     1.21   119.64     0  01:09        1.21
  J10.67               JUNCTION     0.11     0.26   102.76     0  02:18        0.26
  J100.17              JUNCTION     0.10     0.27   119.84     0  01:06        0.26
  J1002.010            JUNCTION     0.22     1.75   119.75     0  01:17        1.75
  J1002.010_2          JUNCTION     0.08     0.47   118.47     0  01:17        0.47
  J1012.195            JUNCTION     0.03     0.09    83.42     0  04:07        0.09
  J1015.55             JUNCTION     0.08     0.22   112.82     0  01:34        0.22
  J1020.38             JUNCTION     0.05     0.28   136.05     0  00:38        0.28
  J1020.569            JUNCTION     0.00     0.00   141.92     0  00:00        0.00
  J1022.947            JUNCTION     0.21     0.63   124.73     0  00:02        0.62
  J1029.335            JUNCTION     0.09     1.25   119.75     0  01:17        1.25
  J1033.40             JUNCTION     0.08     0.19   112.89     0  01:34        0.19
  J1035.929            JUNCTION     0.00     0.00   113.00     0  00:00        0.00
  J104.967             JUNCTION     0.27     0.83   119.76     0  01:00        0.82
  J1041.555            JUNCTION     0.00     0.00   138.50     0  00:00        0.00
  J1042.897            JUNCTION     0.21     0.46   125.17     0  00:01        0.35
  J1051.176            JUNCTION     0.00     0.00   113.00     0  00:00        0.00
  J1058.20             JUNCTION     0.13     0.22   113.22     0  01:33        0.22
  J1060.963            JUNCTION     0.29     0.73    84.06     0  04:07        0.73
  J1093.556            JUNCTION     0.24     0.70    84.22     0  04:07        0.70
  J1096.947            JUNCTION     0.05     0.63   125.73     0  00:01        0.29
  J110.089             JUNCTION     0.00     0.00   135.10     0  00:00        0.00
  J1100                JUNCTION     0.15     0.78   119.75     0  01:18        0.78
  J1100.10             JUNCTION     0.08     0.19   113.65     0  01:33        0.19
  J1100.20             JUNCTION     0.13     0.20    86.98     0  02:18        0.20
  J1100.215            JUNCTION     0.00     0.00   139.00     0  00:00        0.00
  J1100.239            JUNCTION     0.00     0.00   142.50     0  00:00        0.00
  J1101.375            JUNCTION     0.00     0.00   113.50     0  00:00        0.00
  J1101.375_2          JUNCTION     0.00     0.00   113.50     0  00:00        0.00
  J1118.061            JUNCTION     0.00     0.00   114.00     0  00:00        0.00
  J1126.60             JUNCTION     0.04     0.22   136.91     0  00:33        0.21
  J113                 JUNCTION     0.00     0.00   160.00     0  00:00        0.00
  J1130.117            JUNCTION     0.08     0.54   125.74     0  00:00        0.29
  J1144.055            JUNCTION     0.00     0.00   115.00     0  00:00        0.00
  J1144.426            JUNCTION     0.29     0.43    87.25     0  02:22        0.42
  J1146.464            JUNCTION     0.21     0.65    84.37     0  04:07        0.65
  J1151.075            JUNCTION     0.00     0.00   139.50     0  00:00        0.00
  J1154.80             JUNCTION     0.07     0.19   114.19     0  01:31        0.19
  J1163.689            JUNCTION     0.00     0.00   144.00     0  00:00        0.00
  J1178.27             JUNCTION     0.05     0.14   114.88     0  01:31        0.14
  J1184.779            JUNCTION     0.09     0.39   119.89     0  00:47        0.39
  J1200.117            JUNCTION     0.23     0.61   125.91     0  00:34        0.61
  J1200.17             JUNCTION     0.07     0.27   137.77     0  00:32        0.26
  J1200.20             JUNCTION     0.14     0.22    88.49     0  02:19        0.22
  J1200.215            JUNCTION     0.00     0.00   139.56     0  00:00        0.00
  J1200.25             JUNCTION     0.00     0.00   115.01     0  00:00        0.00
  J121.657             JUNCTION     0.00     0.00   101.61     0  00:00        0.00
  J1230.909            JUNCTION     0.00     0.00   144.50     0  00:00        0.00
  J1246.464            JUNCTION     0.38     0.93    85.18     0  04:06        0.93
  J1248.083            JUNCTION     0.00     0.00   115.00     0  00:00        0.00
  J125.38              JUNCTION     0.11     0.28   103.28     0  01:58        0.28
  J1286.17             JUNCTION     0.12     0.55   116.63     0  01:30        0.55
  J1286.17_2           JUNCTION     0.02     0.08   116.16     0  01:30        0.08
  J129.9666            JUNCTION     0.00     0.00   101.69     0  00:00        0.00
  J1294.225            JUNCTION     0.00     0.00   140.50     0  00:00        0.00
  J1298.178            JUNCTION     0.47     1.02    85.65     0  04:05        1.02
  J1299.999            JUNCTION     0.10     0.15    90.29     0  02:16        0.15
  J1300                JUNCTION     0.11     0.40   121.56     0  00:46        0.40
  J1300.117            JUNCTION     0.12     0.36   126.20     0  00:34        0.36
  J1300.17             JUNCTION     0.07     0.28   138.78     0  00:31        0.27
  J1300.25             JUNCTION     0.00     0.00   117.00     0  00:00        0.00
  J1305.379            JUNCTION     0.00     0.00   145.44     0  00:00        0.00
  J1310.18             JUNCTION     0.09     0.21   116.71     0  01:28        0.21
  J1348.30             JUNCTION     0.14     0.51   139.11     0  00:31        0.50
  J1361.769            JUNCTION     0.00     0.00   146.02     0  00:00        0.00
  J1365.595            JUNCTION     0.00     0.00   140.98     0  00:00        0.00
  J1388.055            JUNCTION     0.00     0.00   141.00     0  00:00        0.00
  J1391.170            JUNCTION     0.22     0.60    86.30     0  04:04        0.60
  J1393.48             JUNCTION     0.02     0.15   139.15     0  00:27        0.14
  J1400.000            JUNCTION     0.11     0.39   122.74     0  00:33        0.37
  J1400.10             JUNCTION     0.14     0.39   117.92     0  01:27        0.38
  J1400.117            JUNCTION     0.36     0.81   126.77     0  00:33        0.81
  J1400.20             JUNCTION     0.16     0.23    91.23     0  02:14        0.23
  J1400.239            JUNCTION     0.00     0.00   146.40     0  00:00        0.00
  J1400.25             JUNCTION     0.00     0.00   118.00     0  00:00        0.00
  J142.6492            JUNCTION     0.06     0.24   107.69     0  01:28        0.24
  J1446.464            JUNCTION     0.25     0.72    86.60     0  04:03        0.72
  J1447.009            JUNCTION     0.00     0.00   146.50     0  00:00        0.00
  J145.135             JUNCTION     0.00     0.00   132.50     0  00:00        0.00
  J146.4641            JUNCTION     1.17     1.21    76.04     0  04:17        1.21
  J148.0308            JUNCTION     0.14     0.14    76.00     0  00:30        0.14
  J1489.00             JUNCTION     0.14     0.59   140.09     0  00:26        0.56
  J1495.303            JUNCTION     0.00     0.00   118.50     0  00:00        0.00
  J1500.000            JUNCTION     0.16     0.51   123.51     0  00:44        0.51
  J1500.10             JUNCTION     0.03     0.11   119.64     0  01:16        0.11
  J1500.117            JUNCTION     0.33     0.82   126.82     0  00:32        0.82
  J1500.239            JUNCTION     0.00     0.00   147.00     0  00:00        0.00
  J151                 JUNCTION     0.14     0.20    97.89     0  03:12        0.20
  J1518.067            JUNCTION     0.13     0.21    92.21     0  02:09        0.21
  J152                 JUNCTION     0.00     0.00   107.00     0  00:00        0.00
  J1541.43             JUNCTION     0.05     0.29   140.29     0  00:24        0.29
  J1546.464            JUNCTION     0.14     0.43    87.33     0  04:02        0.43
  J155.7196            JUNCTION     0.00     0.00   101.71     0  00:00        0.00
  J1550.647            JUNCTION     0.09     0.35   126.85     0  00:29        0.35
  J1567.909            JUNCTION     0.00     0.00   147.65     0  00:00        0.00
  J1599.10             JUNCTION     0.07     0.21   120.21     0  01:13        0.20
  J16.09606            JUNCTION     0.01     0.01   100.97     0  16:35        0.01
  J16.935              JUNCTION     0.05     0.25   131.95     0  00:23        0.25
  J1600.117            JUNCTION     0.13     0.28   127.28     0  00:29        0.28
  J1600.25             JUNCTION     0.00     0.00   119.46     0  00:00        0.00
  J1602.427            JUNCTION     0.10     0.16    93.16     0  02:04        0.16
  J162.45              JUNCTION     0.08     0.26   120.93     0  01:04        0.26
  J162.977             JUNCTION     0.16     0.70   119.80     0  00:59        0.70
  J1626.345            JUNCTION     0.19     0.29    93.29     0  02:04        0.29
  J1627.66             JUNCTION     0.01     0.10   141.10     0  00:22        0.10
  J1637.989            JUNCTION     0.00     0.00   148.50     0  00:00        0.00
  J1653.546            JUNCTION     0.00     0.00   120.00     0  00:00        0.00
  J1660.15             JUNCTION     0.09     0.16    93.47     0  02:00        0.16
  J1667.691            JUNCTION     0.00     0.00   120.00     0  00:00        0.00
  J1668.083            JUNCTION     0.29     0.80    87.80     0  04:01        0.80
  J167                 JUNCTION     0.00     0.00   155.07     0  00:00        0.00
  J1687.450            JUNCTION     0.03     0.07    93.69     0  01:57        0.07
  J1700                JUNCTION     0.16     0.58   126.58     0  00:42        0.58
  J1700.10             JUNCTION     0.07     0.18   121.18     0  01:04        0.18
  J1700.117            JUNCTION     0.08     0.25   127.75     0  00:28        0.25
  J1700.17             JUNCTION     0.05     0.32   141.77     0  00:22        0.30
  J1700.229            JUNCTION     0.00     0.00   149.05     0  00:00        0.00
  J1715.436            JUNCTION     0.02     0.05    93.92     0  01:58        0.05
  J1715.718            JUNCTION     0.00     0.00   121.00     0  00:00        0.00
  J1734.993            JUNCTION     0.00     0.00   121.00     0  00:00        0.00
  J1742.723            JUNCTION     0.10     0.15    94.14     0  01:57        0.15
  J1749.279            JUNCTION     0.00     0.00   149.55     0  00:00        0.00
  J1797.21             JUNCTION     0.05     0.38   142.03     0  00:19        0.37
  J1799.999            JUNCTION     0.09     0.18    94.75     0  01:55        0.17
  J1800                JUNCTION     0.09     0.37   127.70     0  00:40        0.37
  J1800.10             JUNCTION     0.09     0.25   121.75     0  01:03        0.25
  J1800.117            JUNCTION     0.05     0.18   128.19     0  00:26        0.18
  J1800.229            JUNCTION     0.00     0.00   149.65     0  00:00        0.00
  J181                 JUNCTION     0.00     0.00   135.00     0  00:00        0.00
  J1816.580            JUNCTION     0.57     0.97    88.36     0  03:54        0.97
  J1820.140            JUNCTION     0.00     0.00   122.00     0  00:00        0.00
  J183                 JUNCTION     0.00     0.00   101.85     0  00:00        0.00
  J185                 JUNCTION     0.00     0.00   153.50     0  00:00        0.00
  J186                 JUNCTION     0.00     0.00   163.50     0  00:00        0.00
  J1871.917            JUNCTION     0.00     0.00   122.46     0  00:00        0.00
  J1889.709            JUNCTION     0.14     0.24    95.82     0  01:52        0.23
  J1897.719            JUNCTION     0.13     0.22    95.87     0  01:52        0.22
  J1900                JUNCTION     0.17     0.60   129.49     0  00:38        0.60
  J1900.10             JUNCTION     0.03     0.12   123.12     0  00:51        0.11
  J1900.17             JUNCTION     0.08     0.41   142.91     0  00:17        0.39
  J1900.229            JUNCTION     0.00     0.00   150.35     0  00:00        0.00
  J1902.476            JUNCTION     0.18     0.41    88.79     0  03:40        0.41
  J1917.479            JUNCTION     0.13     0.37    88.86     0  03:36        0.37
  J1921.384            JUNCTION     0.01     0.03    96.22     0  01:51        0.03
  J1927.647            JUNCTION     0.24     0.51   130.01     0  00:24        0.51
  J193                 JUNCTION     0.00     0.00   101.88     0  00:00        0.00
  J1930.658            JUNCTION     0.07     0.12    96.43     0  01:51        0.12
  J1938.662            JUNCTION     0.00     0.00   122.50     0  00:00        0.00
  J1942.494            JUNCTION     0.14     0.40    88.89     0  03:35        0.40
  J1952.554            JUNCTION     0.20     0.50    89.04     0  03:34        0.50
  J1956.59             JUNCTION     0.09     0.20   123.70     0  00:49        0.19
  J1978.418            JUNCTION     0.04     0.22   130.47     0  00:37        0.22
  J198                 JUNCTION     0.00     0.00   101.90     0  00:00        0.00
  J2.1                 JUNCTION     0.00     0.00   141.30     0  00:00        0.00
  J2.2                 JUNCTION     0.00     0.00   153.20     0  00:00        0.00
  J2.5                 JUNCTION     0.00     0.00   142.50     0  00:00        0.00
  j2.6                 JUNCTION     0.00     0.00   141.40     0  00:00        0.00
  J200.09              JUNCTION     0.25     0.54   103.54     0  01:58        0.54
  J200.17              JUNCTION     0.03     0.17   121.59     0  01:02        0.16
  J200.20              JUNCTION     0.04     0.05    76.05     0  17:44        0.05
  J200.215             JUNCTION     0.00     0.00   132.57     0  00:00        0.00
  J200.239             JUNCTION     0.00     0.00   135.20     0  00:00        0.00
  J2000.10             JUNCTION     0.09     0.23   124.94     0  00:46        0.21
  J2000.117            JUNCTION     0.24     0.55   130.55     0  00:23        0.55
  J2000.17             JUNCTION     0.09     0.43   143.43     0  00:15        0.43
  J2000.20             JUNCTION     0.08     0.17    97.17     0  01:50        0.17
  J2000.229            JUNCTION     0.00     0.00   150.79     0  00:00        0.00
  J2000.25             JUNCTION     0.00     0.00   123.00     0  00:00        0.00
  J2032.625            JUNCTION     0.18     0.58   130.96     0  00:36        0.58
  J2046.464            JUNCTION     0.22     0.59    89.59     0  03:31        0.59
  J2063.577            JUNCTION     0.16     0.40   130.90     0  00:25        0.40
  J2081.98             JUNCTION     0.14     0.29    97.59     0  01:47        0.28
  J2100                JUNCTION     0.09     0.35   131.66     0  00:35        0.35
  J2100.10             JUNCTION     0.27     0.69   125.50     0  00:53        0.69
  J2100.17             JUNCTION     0.05     0.32   144.32     0  00:11        0.31
  J2100.229            JUNCTION     0.00     0.00   151.18     0  00:00        0.00
  J2100.25             JUNCTION     0.00     0.00   124.05     0  00:00        0.00
  J2106.268            JUNCTION     0.13     0.21    98.05     0  01:45        0.21
  J2118.174            JUNCTION     0.14     0.40    89.90     0  03:30        0.40
  J212                 JUNCTION     0.00     0.00   144.40     0  00:00        0.00
  J2120.26             JUNCTION     0.26     0.35    98.06     0  01:45        0.35
  J2126.4              JUNCTION     0.48     0.58    98.06     0  01:45        0.58
  J2128.867            JUNCTION     0.11     0.29   131.55     0  00:24        0.29
  J2155.5              JUNCTION     0.02     0.04    98.49     0  01:45        0.04
  J216                 JUNCTION     0.00     0.00   153.50     0  00:00        0.00
  J2162.390            JUNCTION     0.36     0.64    90.24     0  03:30        0.64
  J2165.306            JUNCTION     0.13     0.45   132.45     0  00:33        0.45
  J2167                JUNCTION     0.07     0.12    98.89     0  01:45        0.12
  J2171.407            JUNCTION     0.18     0.43   131.93     0  00:23        0.43
  J2173.272            JUNCTION     0.44     0.77    90.47     0  03:29        0.77
  J2177.86             JUNCTION     0.04     0.26   144.81     0  00:10        0.26
  J218                 JUNCTION     0.00     0.00   101.97     0  00:00        0.00
  J2185.476            JUNCTION     0.40     0.73    90.53     0  03:29        0.73
  J2187.585            JUNCTION     0.12     0.44   132.69     0  00:33        0.43
  J2200.229            JUNCTION     0.00     0.00   152.38     0  00:00        0.00
  J2200.25             JUNCTION     0.00     0.00   125.00     0  00:00        0.00
  J2206.53             JUNCTION     0.04     0.22   126.84     0  00:35        0.22
  J2213.506            JUNCTION     0.12     0.46    90.56     0  03:29        0.46
  J2223.267            JUNCTION     0.15     0.37   132.07     0  00:22        0.37
  J2224.630            JUNCTION     0.16     0.45    90.64     0  03:28        0.45
  J2227.161            JUNCTION     0.05     0.63   133.55     0  00:33        0.63
  J2230.806            JUNCTION     0.12     0.20   100.20     0  01:45        0.20
  J2242.380            JUNCTION     0.20     0.74   133.74     0  00:33        0.74
  J2246.37             JUNCTION     0.43     0.55   100.23     0  01:44        0.55
  J226.077             JUNCTION     0.19     0.60   120.10     0  00:23        0.56
  J2266.899            JUNCTION     0.00     0.00   153.53     0  00:00        0.00
  J2267.81             JUNCTION     0.11     0.47   145.35     0  00:09        0.47
  J2281.974            JUNCTION     0.09     0.15   100.43     0  01:41        0.15
  J2287.052            JUNCTION     0.23     0.81   133.91     0  00:32        0.81
  J2292.097            JUNCTION     0.15     0.40   132.40     0  00:20        0.40
  J2295.416            JUNCTION     0.06     0.10   100.79     0  01:41        0.10
  J2296.492            JUNCTION     0.20     0.59    91.09     0  03:28        0.59
  J2300.10             JUNCTION     0.13     0.44   127.94     0  00:36        0.44
  J2300.25             JUNCTION     0.00     0.00   125.59     0  00:00        0.00
  J2320.843            JUNCTION     0.02     0.04   100.99     0  01:40        0.04
  J2326.414            JUNCTION     0.00     0.00   125.62     0  00:00        0.00
  J2331.99             JUNCTION     0.13     0.69   145.88     0  00:08        0.68
  J2337                JUNCTION     0.09     0.17   101.33     0  01:40        0.17
  J2346.464            JUNCTION     0.12     0.34    91.27     0  03:27        0.34
  J2352.47             JUNCTION     0.12     0.44   128.60     0  00:35        0.44
  J2359.439            JUNCTION     0.27     0.95   134.15     0  00:31        0.95
  J2376.910            JUNCTION     0.23     0.93   134.23     0  00:31        0.93
  J2378.957            JUNCTION     0.16     0.41   132.91     0  00:20        0.41
  J238                 JUNCTION     0.00     0.00   102.02     0  00:00        0.00
  J2391.051            JUNCTION     0.00     0.00   126.24     0  00:00        0.00
  J2411.26             JUNCTION     0.03     0.34   146.34     0  00:06        0.31
  J2430.00             JUNCTION     0.17     0.63   130.10     0  00:34        0.63
  J2434.394            JUNCTION     0.00     0.00   126.57     0  00:00        0.00
  J2434.395            JUNCTION     0.00     0.00   126.57     0  00:00        0.00
  J2446.464            JUNCTION     0.27     0.63    91.79     0  03:26        0.63
  J2447.455            JUNCTION     0.08     0.86   134.36     0  00:31        0.85
  J2456.367            JUNCTION     0.15     0.37   133.87     0  00:19        0.37
  J246.4641            JUNCTION     0.30     0.49    76.20     0  04:15        0.49
  J246.585             JUNCTION     0.00     0.00   133.00     0  00:00        0.00
  J2460.36             JUNCTION     0.11     0.57   147.09     0  00:06        0.56
  J2465.522            JUNCTION     0.21     0.84   134.44     0  00:31        0.84
  J2477.264            JUNCTION     0.13     0.21   102.88     0  01:38        0.21
  J248.32              JUNCTION     0.21     0.51   103.71     0  01:55        0.51
  J250.67              JUNCTION     0.10     0.36   122.36     0  01:03        0.36
  J2500                JUNCTION     0.25     0.92   134.62     0  00:30        0.92
  J2500.10             JUNCTION     0.14     0.44   131.57     0  00:33        0.43
  J2500.16             JUNCTION     0.09     0.57   147.57     0  00:05        0.56
  J2503.914            JUNCTION     0.00     0.00   127.50     0  00:00        0.00
  J2503.915            JUNCTION     0.00     0.00   127.50     0  00:00        0.00
  J252                 JUNCTION     0.00     0.00   102.05     0  00:00        0.00
  J2528.637            JUNCTION     0.35     0.80   134.31     0  00:18        0.80
  J2532.899            JUNCTION     0.13     0.22   102.90     0  01:37        0.22
  J2535.77             JUNCTION     0.09     0.32   132.39     0  00:32        0.32
  J2540.48             JUNCTION     0.03     0.20   147.90     0  00:02        0.18
  J2546.464            JUNCTION     0.35     0.76    92.58     0  03:25        0.76
  J2547.594            JUNCTION     0.00     0.00   127.83     0  00:00        0.00
  J255.1367            JUNCTION     0.15     0.41   109.41     0  01:27        0.41
  J2559.518            JUNCTION     0.29     1.03   134.83     0  00:29        1.03
  J2593.551            JUNCTION     0.12     0.23   103.23     0  01:28        0.23
  J2594.793            JUNCTION     0.27     1.05   134.95     0  00:29        1.05
  J2600.16             JUNCTION     0.08     0.38   148.38     0  00:01        0.34
  J2603.25             JUNCTION     0.07     0.26   132.88     0  00:32        0.25
  J2604.897            JUNCTION     0.03     0.31   134.31     0  00:17        0.31
  J2612.881            JUNCTION     0.00     0.00   128.57     0  00:00        0.00
  J2646.464            JUNCTION     0.10     0.32    93.32     0  03:24        0.32
  J2646.738            JUNCTION     0.25     1.01   135.01     0  00:28        1.01
  J265.297             JUNCTION     0.14     0.47   120.37     0  00:20        0.47
  J2650.52             JUNCTION     0.00     0.00   148.47     0  00:00        0.00
  J2657.134            JUNCTION     0.00     0.00   129.29     0  00:00        0.00
  J2662.919            JUNCTION     0.16     0.92   135.02     0  00:28        0.92
  J2666.88             JUNCTION     0.16     0.53   133.57     0  00:31        0.53
  J2680.447            JUNCTION     0.14     0.41    93.59     0  03:24        0.41
  J2698.001            JUNCTION     0.00     0.00   129.85     0  00:00        0.00
  J2699.999            JUNCTION     0.13     0.23   104.15     0  01:26        0.23
  J27.449              JUNCTION     0.03     0.12   130.15     0  00:00        0.12
  J27.45592            JUNCTION     0.77     0.77    76.00     0  00:30        0.77
  J2706.457            JUNCTION     0.00     0.00   134.50     0  00:00        0.00
  J271.7621            JUNCTION     0.10     0.13    76.73     0  17:41        0.13
  J2721.15             JUNCTION     0.00     0.00   148.50     0  00:00        0.00
  J2723.864            JUNCTION     0.09     0.94   135.14     0  00:28        0.94
  J2737.311            JUNCTION     0.00     0.00   130.20     0  00:00        0.00
  J2742.526            JUNCTION     0.23     0.94   135.24     0  00:27        0.93
  J2744.16             JUNCTION     0.23     0.78   133.90     0  00:30        0.76
  J2746.464            JUNCTION     0.29     0.60    94.17     0  03:23        0.60
  J2757.35             JUNCTION     0.11     0.47   133.91     0  00:30        0.44
  J2795.45             JUNCTION     0.00     0.00   149.00     0  00:00        0.00
  J2799.999            JUNCTION     0.15     0.29   104.79     0  01:23        0.28
  J2800                JUNCTION     0.21     0.83   135.33     0  00:26        0.83
  J2802.458            JUNCTION     0.00     0.00   131.00     0  00:00        0.00
  J2809.59             JUNCTION     0.03     0.37   134.04     0  00:29        0.37
  J2813.657            JUNCTION     0.00     0.00   135.00     0  00:00        0.00
  J2826.19             JUNCTION     0.13     0.44   134.46     0  00:28        0.44
  J2843.745            JUNCTION     0.11     0.23   104.93     0  01:19        0.23
  J2849.017            JUNCTION     0.37     0.82    94.83     0  03:23        0.82
  J2860.405            JUNCTION     0.24     0.53    94.81     0  03:22        0.53
  J2864.348            JUNCTION     0.09     0.18   105.14     0  01:21        0.18
  J2886.384            JUNCTION     0.00     0.00   132.09     0  00:00        0.00
  J2888.560            JUNCTION     0.18     0.28   105.14     0  01:22        0.28
  J2892.413            JUNCTION     0.27     0.57    95.29     0  03:22        0.57
  J290.5               JUNCTION     0.00     0.00   102.47     0  00:00        0.00
  J2900                JUNCTION     0.24     0.89   135.89     0  00:05        0.87
  J2900.09             JUNCTION     0.13     0.48   135.14     0  00:28        0.48
  J2900.117            JUNCTION     0.00     0.00   136.00     0  00:00        0.00
  J2900.16             JUNCTION     0.00     0.00   150.44     0  00:00        0.00
  J2902.731            JUNCTION     0.31     0.63    95.40     0  03:22        0.63
  J2908.990            JUNCTION     0.07     0.15   105.32     0  01:19        0.15
  J2919.088            JUNCTION     0.00     0.00   132.66     0  00:00        0.00
  J2946.464            JUNCTION     0.40     0.78    95.56     0  03:21        0.78
  J2979.285            JUNCTION     0.37     1.26   136.28     0  00:05        1.20
  J2989.647            JUNCTION     0.21     0.60    95.60     0  03:21        0.60
  J2999.999            JUNCTION     0.12     0.22   106.72     0  01:18        0.22
  J3                   JUNCTION     0.00     0.00   143.50     0  00:00        0.00
  j3.1                 JUNCTION     0.00     0.00   141.50     0  00:00        0.00
  J3.15                JUNCTION     0.00     0.00   153.40     0  00:00        0.00
  J3.2                 JUNCTION     0.00     0.00   153.70     0  00:00        0.00
  J300                 JUNCTION     0.18     0.51   110.35     0  01:27        0.51
  J300.09              JUNCTION     0.17     0.41   104.21     0  01:56        0.41
  J300.215             JUNCTION     0.00     0.00   133.50     0  00:00        0.00
  J300.239             JUNCTION     0.00     0.00   135.30     0  00:00        0.00
  J3000.09             JUNCTION     0.15     0.53   136.24     0  00:27        0.53
  J3000.117            JUNCTION     0.00     0.00   136.50     0  00:00        0.00
  J3000.16             JUNCTION     0.00     0.00   151.17     0  00:00        0.00
  J3007.922            JUNCTION     0.05     0.76   136.26     0  00:04        0.76
  J3008.665            JUNCTION     0.00     0.00   133.82     0  00:00        0.00
  J3035                JUNCTION     0.08     0.14   107.69     0  01:16        0.14
  J3045                JUNCTION     0.02     0.04   107.89     0  01:16        0.04
  J3051.067            JUNCTION     0.00     0.00   137.00     0  00:00        0.00
  J3054.885            JUNCTION     0.15     0.41    96.41     0  03:20        0.41
  J3066.327            JUNCTION     0.21     0.48    96.56     0  03:20        0.48
  J3073.705            JUNCTION     0.08     0.13   108.84     0  01:16        0.13
  J3098.703            JUNCTION     0.00     0.00   134.07     0  00:00        0.00
  J3099.031            JUNCTION     0.09     0.17   109.17     0  01:15        0.17
  J3100.09             JUNCTION     0.13     0.49   137.13     0  00:26        0.49
  J3100.16             JUNCTION     0.00     0.00   151.77     0  00:00        0.00
  J3103.867            JUNCTION     0.00     0.00   137.10     0  00:00        0.00
  J3105.432            JUNCTION     0.16     0.49    96.68     0  03:20        0.49
  J311.56              JUNCTION     0.06     0.23   124.01     0  00:59        0.23
  J3111.594            JUNCTION     0.06     0.53   136.53     0  00:01        0.33
  J3135.52             JUNCTION     0.04     0.46   136.56     0  00:01        0.31
  J314.357             JUNCTION     0.14     0.52   120.52     0  00:49        0.52
  J3148.25             JUNCTION     0.00     0.00   152.01     0  00:00        0.00
  J3150.013            JUNCTION     0.10     0.23    96.91     0  03:18        0.23
  J3158.17             JUNCTION     0.10     0.33   137.60     0  00:25        0.33
  J3172.921            JUNCTION     0.00     0.00   135.23     0  00:00        0.00
  J3186.801            JUNCTION     0.00     0.00   135.30     0  00:00        0.00
  J3200                JUNCTION     0.20     0.60   136.80     0  00:19        0.60
  J3200.117            JUNCTION     0.00     0.00   138.00     0  00:00        0.00
  J3200.16             JUNCTION     0.00     0.00   152.10     0  00:00        0.00
  J3202.874            JUNCTION     0.02     0.05   110.05     0  01:12        0.04
[...]
  CJ4900.10               1.00   1.00  0.00  0.00  0.00  0.00  0.00  0.00  0.00  0.00
  CJ4900.20               1.00   0.00  0.00  0.00  0.00  1.00  0.00  0.00  0.00  0.00
  CJ4900.25               1.00   1.00  0.00  0.00  0.00  0.00  0.00  0.00  0.00  0.00
  CJ4933.290              1.00   1.00  0.00  0.00  0.00  0.00  0.00  0.00  0.00  0.00
  CJ4945.903              1.00   0.03  0.00  0.00  0.97  0.00  0.00  0.00  0.96  0.00
  CJ4957.289              1.00   1.00  0.00  0.00  0.00  0.00  0.00  0.00  0.00  0.00
  CJ498.2611              1.00   0.02  0.00  0.00  0.98  0.00  0.00  0.00  0.98  0.00
  CJ498.2611_HC           1.00   1.00  0.00  0.00  0.00  0.00  0.00  0.00  0.00  0.00
  CJ500.17                1.00   0.02  0.00  0.00  0.98  0.00  0.00  0.00  0.98  0.00
  CJ500.239               1.00   1.00  0.00  0.00  0.00  0.00  0.00  0.00  0.00  0.00
  CJ500.25                1.00   1.00  0.00  0.00  0.00  0.00  0.00  0.00  0.00  0.00
  CJ5000.10               1.00   1.00  0.00  0.00  0.00  0.00  0.00  0.00  0.00  0.00
  CJ5000.20               1.00   0.00  0.00  0.00  0.84  0.16  0.00  0.00  0.31  0.00
  CJ501.0021              1.00   0.07  0.00  0.00  0.92  0.00  0.00  0.00  0.93  0.00
  CJ5046.464              1.00   0.03  0.00  0.00  0.97  0.00  0.00  0.00  0.00  0.00
  CJ5048.723              1.00   1.00  0.00  0.00  0.00  0.00  0.00  0.00  0.00  0.00
  CJ506.895               1.00   1.00  0.00  0.00  0.00  0.00  0.00  0.00  0.00  0.00
  CJ5078.876              1.00   0.00  0.00  0.00  1.00  0.00  0.00  0.00  0.00  0.00
  CJ509.347               1.00   0.00  0.00  0.00  1.00  0.00  0.00  0.00  0.00  0.00
  CJ5096.349              1.00   0.00  0.00  0.00  1.00  0.00  0.00  0.00  1.00  0.00
  CJ5100.10               1.00   1.00  0.00  0.00  0.00  0.00  0.00  0.00  0.00  0.00
  CJ5118.131              1.00   0.00  0.00  0.00  1.00  0.00  0.00  0.00  0.00  0.00
  CJ512.9811              1.00   1.00  0.00  0.00  0.00  0.00  0.00  0.00  0.00  0.00
  CJ513.5331              1.00   0.02  0.00  0.00  0.00  0.98  0.00  0.00  0.00  0.00
  CJ5143.615              1.00   0.00  0.00  0.00  1.00  0.00  0.00  0.00  0.00  0.00
  CJ5146.464              1.00   0.02  0.00  0.00  0.98  0.00  0.00  0.00  0.00  0.00
  CJ515.5250              1.00   0.07  0.00  0.00  0.00  0.93  0.00  0.00  0.00  0.00
  CJ5152.642              1.00   1.00  0.00  0.00  0.00  0.00  0.00  0.00  0.00  0.00
  CJ516.02                1.00   0.04  0.00  0.00  0.96  0.00  0.00  0.00  0.96  0.00
  CJ5162.059              1.00   0.00  0.00  0.00  1.00  0.00  0.00  0.00  1.00  0.00
  CJ5220.803              1.00   1.00  0.00  0.00  0.00  0.00  0.00  0.00  0.00  0.00
  CJ5226.563              1.00   0.00  0.00  0.00  1.00  0.00  0.00  0.00  1.00  0.00
  CJ5226.563_HC           1.00   1.00  0.00  0.00  0.00  0.00  0.00  0.00  0.00  0.00
  CJ523.1179              1.00   0.07  0.00  0.00  0.93  0.00  0.00  0.00  0.00  0.00
  CJ5246.372              1.00   0.00  0.00  0.00  0.00  1.00  0.00  0.00  0.00  0.00
  CJ5260.950              1.00   0.02  0.00  0.00  0.98  0.00  0.00  0.00  0.97  0.00
  CJ5260.956              1.00   1.00  0.00  0.00  0.00  0.00  0.00  0.00  0.00  0.00
  CJ5300.10               1.00   1.00  0.00  0.00  0.00  0.00  0.00  0.00  0.00  0.00
  CJ5300.20               1.00   0.00  0.00  0.00  1.00  0.00  0.00  0.00  1.00  0.00
  CJ531.73                1.00   0.02  0.00  0.00  0.98  0.00  0.00  0.00  0.98  0.00
  CJ534.23                1.00   0.04  0.00  0.00  0.96  0.00  0.00  0.00  0.96  0.00
  CJ5373.942              1.00   0.01  0.00  0.00  0.98  0.01  0.00  0.00  0.68  0.00
  CJ5400.10               1.00   1.00  0.00  0.00  0.00  0.00  0.00  0.00  0.00  0.00
  CJ5400.20               1.00   0.00  0.00  0.00  1.00  0.00  0.00  0.00  1.00  0.00
  CJ5427.875              1.00   0.01  0.00  0.00  0.99  0.00  0.00  0.00  0.00  0.00
  CJ544.1928              1.00   0.07  0.00  0.00  0.93  0.00  0.00  0.00  0.94  0.00
  CJ544.1928_HC           1.00   1.00  0.00  0.00  0.00  0.00  0.00  0.00  0.00  0.00
  CJ546.4642              1.00   0.07  0.00  0.00  0.93  0.00  0.00  0.00  0.90  0.00
  CJ546.6221              1.00   1.00  0.00  0.00  0.00  0.00  0.00  0.00  0.00  0.00
  CJ5500.10               1.00   1.00  0.00  0.00  0.00  0.00  0.00  0.00  0.00  0.00
  CJ5500.20               1.00   0.00  0.00  0.00  1.00  0.00  0.00  0.00  0.00  0.00
  CJ5532.597              1.00   0.00  0.00  0.00  1.00  0.00  0.00  0.00  0.98  0.00
  CJ554.879               1.00   1.00  0.00  0.00  0.00  0.00  0.00  0.00  0.00  0.00
  CJ5543.03               1.00   1.00  0.00  0.00  0.00  0.00  0.00  0.00  0.00  0.00
  CJ5581.81               1.00   1.00  0.00  0.00  0.00  0.00  0.00  0.00  0.00  0.00
  CJ5598.608              1.00   1.00  0.00  0.00  0.00  0.00  0.00  0.00  0.00  0.00
  CJ5600.20               1.00   0.00  0.00  0.00  1.00  0.00  0.00  0.00  1.00  0.00
  CJ5627.203              1.00   0.00  0.00  0.00  1.00  0.00  0.00  0.00  0.99  0.00
  CJ5660.181              1.00   0.00  0.00  0.00  1.00  0.00  0.00  0.00  0.00  0.00
  CJ570.5971              1.00   0.07  0.00  0.00  0.00  0.93  0.00  0.00  0.00  0.00
  CJ5705.508              1.00   0.00  0.00  0.00  1.00  0.00  0.00  0.00  0.00  0.00
  CJ571.927               1.00   0.00  0.00  0.00  1.00  0.00  0.00  0.00  0.24  0.00
  CJ5746.464              1.00   0.00  0.00  0.00  1.00  0.00  0.00  0.00  0.00  0.00
  CJ5816.245              1.00   0.00  0.00  0.00  1.00  0.00  0.00  0.00  1.00  0.00
  CJ5816.245_HC           1.00   1.00  0.00  0.00  0.00  0.00  0.00  0.00  0.00  0.00
  CJ5839.625              1.00   0.00  0.00  0.00  1.00  0.00  0.00  0.00  0.00  0.00
  CJ5850.291              1.00   0.00  0.01  0.00  0.99  0.00  0.00  0.00  0.98  0.00
  CJ5869.256              1.00   0.00  0.00  0.00  1.00  0.00  0.00  0.00  0.15  0.00
  CJ5899.999              1.00   0.00  0.00  0.00  1.00  0.00  0.00  0.00  0.00  0.00
  CJ591.0980              1.00   0.07  0.00  0.00  0.93  0.00  0.00  0.00  0.00  0.00
  CJ5942.698              1.00   0.00  0.00  0.00  1.00  0.00  0.00  0.00  0.12  0.00
  CJ5946.083              1.00   0.01  0.01  0.00  0.98  0.00  0.00  0.00  0.96  0.00
  CJ595.3819              1.00   0.07  0.00  0.00  0.93  0.00  0.00  0.00  0.00  0.00
  CJ599.9999              1.00   1.00  0.00  0.00  0.00  0.00  0.00  0.00  0.00  0.00
  CJ6.227                 1.00   0.01  0.00  0.00  0.99  0.00  0.00  0.00  0.00  0.00
  CJ60.22                 1.00   0.04  0.00  0.00  0.96  0.00  0.00  0.00  0.00  0.00
  CJ600.0000              1.00   0.02  0.00  0.00  0.98  0.00  0.00  0.00  0.00  0.00
  CJ600.17                1.00   0.02  0.00  0.00  0.00  0.98  0.00  0.00  0.00  0.00
  CJ600.239               1.00   1.00  0.00  0.00  0.00  0.00  0.00  0.00  0.00  0.00
  CJ6000.20               1.00   0.01  0.01  0.00  0.99  0.00  0.00  0.00  0.00  0.00
  CJ6040.300              1.00   0.01  0.99  0.00  0.00  0.00  0.00  0.00  0.00  0.00
  CJ6046.464              1.00   0.02  0.00  0.00  0.98  0.00  0.00  0.00  0.00  0.00
  CJ6055.417              1.00   1.00  0.00  0.00  0.00  0.00  0.00  0.00  0.00  0.00
  CJ6098.928              1.00   0.02  0.00  0.00  0.98  0.00  0.00  0.00  0.00  0.00
  CJ6106.137              1.00   1.00  0.00  0.00  0.00  0.00  0.00  0.00  0.00  0.00
  CJ6106.137_HC           1.00   1.00  0.00  0.00  0.00  0.00  0.00  0.00  0.00  0.00
  CJ612.3046              1.00   0.07  0.00  0.00  0.93  0.00  0.00  0.00  0.94  0.00
  CJ6121.368              1.00   1.00  0.00  0.00  0.00  0.00  0.00  0.00  0.00  0.00
  CJ6152.898              1.00   1.00  0.00  0.00  0.00  0.00  0.00  0.00  0.00  0.00
  CJ6165.560              1.00   0.02  0.00  0.00  0.98  0.00  0.00  0.00  0.29  0.00
  CJ62.389                1.00   0.98  0.02  0.00  0.00  0.00  0.00  0.00  0.00  0.00
  CJ6200.2                1.00   1.00  0.00  0.00  0.00  0.00  0.00  0.00  0.00  0.00
  CJ6233.167              1.00   0.02  0.00  0.00  0.98  0.00  0.00  0.00  0.12  0.00
  CJ6242.021              1.00   1.00  0.00  0.00  0.00  0.00  0.00  0.00  0.00  0.00
  CJ625.125               1.00   1.00  0.00  0.00  0.00  0.00  0.00  0.00  0.00  0.00
  CJ6300.2                1.00   1.00  0.00  0.00  0.00  0.00  0.00  0.00  0.00  0.00
  CJ6301.693              1.00   0.01  0.00  0.00  0.99  0.00  0.00  0.00  0.00  0.00
  CJ634.217               1.00   0.00  0.00  0.00  1.00  0.00  0.00  0.00  0.76  0.00
  CJ6352.562              1.00   1.00  0.00  0.00  0.00  0.00  0.00  0.00  0.00  0.00
  CJ6358.901              1.00   0.01  0.00  0.00  0.99  0.00  0.00  0.00  0.06  0.00
  CJ638.21                1.00   1.00  0.00  0.00  0.00  0.00  0.00  0.00  0.00  0.00
  CJ639.57                1.00   0.02  0.00  0.00  0.98  0.00  0.00  0.00  0.98  0.00
  CJ6400.2                1.00   1.00  0.00  0.00  0.00  0.00  0.00  0.00  0.00  0.00
  CJ6435.935              1.00   0.01  0.00  0.00  0.99  0.00  0.00  0.00  0.98  0.00
  CJ6455.909              1.00   1.00  0.00  0.00  0.00  0.00  0.00  0.00  0.00  0.00
  CJ646.4641              1.00   0.07  0.00  0.00  0.93  0.00  0.00  0.00  0.94  0.00
  CJ647.627               1.00   0.00  0.00  0.00  1.00  0.00  0.00  0.00  0.75  0.00
  CJ6478.273              1.00   0.01  0.00  0.00  0.99  0.00  0.00  0.00  0.00  0.00
  CJ651.4387              1.00   0.07  0.00  0.00  0.93  0.00  0.00  0.00  0.94  0.00
  CJ651.4387_HC           1.00   1.00  0.00  0.00  0.00  0.00  0.00  0.00  0.00  0.00
  CJ6518.760              1.00   1.00  0.00  0.00  0.00  0.00  0.00  0.00  0.00  0.00
  CJ6538.791              1.00   1.00  0.00  0.00  0.00  0.00  0.00  0.00  0.00  0.00
  CJ6565.562              1.00   0.01  0.00  0.00  0.99  0.00  0.00  0.00  0.99  0.00
  CJ657.28                1.00   0.04  0.00  0.00  0.96  0.00  0.00  0.00  0.96  0.00
  CJ657.28_HC             1.00   1.00  0.00  0.00  0.00  0.00  0.00  0.00  0.00  0.00
  CJ657.629               1.00   1.00  0.00  0.00  0.00  0.00  0.00  0.00  0.00  0.00
  CJ6599.053              1.00   1.00  0.00  0.00  0.00  0.00  0.00  0.00  0.00  0.00
  CJ6599.053_HC           1.00   1.00  0.00  0.00  0.00  0.00  0.00  0.00  0.00  0.00
  CJ6621.406              1.00   1.00  0.00  0.00  0.00  0.00  0.00  0.00  0.00  0.00
  CJ6651.313              1.00   1.00  0.00  0.00  0.00  0.00  0.00  0.00  0.00  0.00
  CJ6662.639              1.00   0.00  0.00  0.00  1.00  0.00  0.00  0.00  0.00  0.00
  CJ667.8976              1.00   0.06  0.00  0.00  0.00  0.94  0.00  0.00  0.93  0.00
  CJ6700.2                1.00   1.00  0.00  0.00  0.00  0.00  0.00  0.00  0.00  0.00
  CJ674.5680              1.00   0.07  0.00  0.00  0.93  0.00  0.00  0.00  0.94  0.00
  CJ674.60                1.00   0.04  0.00  0.00  0.00  0.96  0.00  0.00  0.00  0.00
  CJ6748.093              1.00   1.00  0.00  0.00  0.00  0.00  0.00  0.00  0.00  0.00
  CJ6772.934              1.00   0.00  0.00  0.00  1.00  0.00  0.00  0.00  0.99  0.00
  CJ679.8                 1.00   1.00  0.00  0.00  0.00  0.00  0.00  0.00  0.00  0.00
  CJ679.8_HC              1.00   1.00  0.00  0.00  0.00  0.00  0.00  0.00  0.00  0.00
  CJ6800.2                1.00   1.00  0.00  0.00  0.00  0.00  0.00  0.00  0.00  0.00
  CJ684.977               1.00   0.00  0.00  0.00  1.00  0.00  0.00  0.00  0.86  0.00
  CJ684.977_HC            1.00   1.00  0.00  0.00  0.00  0.00  0.00  0.00  0.00  0.00
  CJ6845.150              1.00   1.00  0.00  0.00  0.00  0.00  0.00  0.00  0.00  0.00
  CJ6846.464              1.00   0.00  0.00  0.00  1.00  0.00  0.00  0.00  0.00  0.00
  CJ6894.028              1.00   0.00  0.00  0.00  1.00  0.00  0.00  0.00  0.00  0.00
  CJ6899.999              1.00   1.00  0.00  0.00  0.00  0.00  0.00  0.00  0.00  0.00
  CJ69.25231              1.00   0.02  0.00  0.00  0.98  0.00  0.00  0.00  0.08  0.00
  CJ6932.571              1.00   1.00  0.00  0.00  0.00  0.00  0.00  0.00  0.00  0.00
  CJ695.90                1.00   0.02  0.00  0.00  0.98  0.00  0.00  0.00  0.00  0.00
  CJ6988.738              1.00   0.00  0.00  0.00  0.96  0.04  0.00  0.00  0.01  0.00
  CJ699.925               1.00   1.00  0.00  0.00  0.00  0.00  0.00  0.00  0.00  0.00
  CJ7.227846              1.00   0.00  0.00  0.00  1.00  0.00  0.00  0.00  0.00  0.00
  CJ7.899100              1.00   0.00  0.00  0.00  1.00  0.00  0.00  0.00  0.00  0.00
  CJ700                   1.00   0.02  0.00  0.00  0.98  0.00  0.00  0.00  0.00  0.00
  CJ700.239               1.00   1.00  0.00  0.00  0.00  0.00  0.00  0.00  0.00  0.00
  CJ702.5914              1.00   1.00  0.00  0.00  0.00  0.00  0.00  0.00  0.00  0.00
  CJ703.1630              1.00   0.07  0.00  0.00  0.00  0.93  0.00  0.00  0.00  0.00
  CJ7047.302              1.00   0.00  0.00  0.00  1.00  0.00  0.00  0.00  0.00  0.00
  CJ706.81                1.00   0.01  0.00  0.00  0.98  0.00  0.00  0.00  0.06  0.00
  CJ709.95                1.00   0.04  0.00  0.00  0.96  0.00  0.00  0.00  0.05  0.00
  CJ71.72631              1.00   0.00  0.00  0.00  1.00  0.00  0.00  0.00  0.00  0.00
  CJ712.5684              1.00   1.00  0.00  0.00  0.00  0.00  0.00  0.00  0.00  0.00
  CJ7132.593              1.00   0.00  0.00  0.00  1.00  0.00  0.00  0.00  0.31  0.00
  CJ718.547               1.00   0.00  0.00  0.00  0.46  0.54  0.00  0.00  0.00  0.00
  CJ7232.906              1.00   0.00  0.02  0.00  0.98  0.00  0.00  0.00  0.98  0.00
  CJ7322.142              1.00   0.02  0.00  0.00  0.98  0.00  0.00  0.00  0.95  0.00
  CJ736.779               1.00   1.00  0.00  0.00  0.00  0.00  0.00  0.00  0.00  0.00
  CJ737.045               1.00   1.00  0.00  0.00  0.00  0.00  0.00  0.00  0.00  0.00
  CJ737.31                1.00   0.01  0.00  0.00  0.00  0.00  0.00  0.99  0.00  0.00
  CJ737.31_HC             1.00   1.00  0.00  0.00  0.00  0.00  0.00  0.00  0.00  0.00
  CJ738.7840              1.00   0.06  0.00  0.00  0.00  0.94  0.00  0.00  0.00  0.00
  CJ7381.689              1.00   0.02  0.00  0.00  0.98  0.00  0.00  0.00  0.04  0.00
  CJ74.135                1.00   0.00  1.00  0.00  0.00  0.00  0.00  0.00  0.00  0.00
  CJ7449.270              1.00   0.01  0.00  0.00  0.99  0.00  0.00  0.00  0.98  0.00
  CJ746.4641              1.00   0.07  0.00  0.00  0.93  0.00  0.00  0.00  0.78  0.00
  CJ749.08                1.00   0.01  0.00  0.00  0.00  0.99  0.00  0.00  0.00  0.00
  CJ7549.375              1.00   0.01  0.00  0.00  0.99  0.00  0.00  0.00  0.00  0.00
  CJ762.307               1.00   0.00  0.00  0.00  1.00  0.00  0.00  0.00  1.00  0.00
  CJ7639.745              1.00   0.01  0.00  0.00  0.99  0.00  0.00  0.00  0.95  0.00
  CJ768.179               1.00   1.00  0.00  0.00  0.00  0.00  0.00  0.00  0.00  0.00
  CJ772.7612              1.00   1.00  0.00  0.00  0.00  0.00  0.00  0.00  0.00  0.00
  CJ772.7612_HC           1.00   1.00  0.00  0.00  0.00  0.00  0.00  0.00  0.00  0.00
  CJ7752.183_1            1.00   0.01  0.00  0.00  0.99  0.00  0.00  0.00  0.00  0.00
  CJ7752.183_2            1.00   0.01  0.00  0.00  0.99  0.00  0.00  0.00  0.00  0.00
  CJ783.0354              1.00   1.00  0.00  0.00  0.00  0.00  0.00  0.00  0.00  0.00
  CJ794.7359              1.00   0.07  0.00  0.00  0.51  0.42  0.00  0.00  0.00  0.00
  CJ795.635               1.00   1.00  0.00  0.00  0.00  0.00  0.00  0.00  0.00  0.00
  CJ799.60                1.00   0.04  0.00  0.00  0.96  0.00  0.00  0.00  0.97  0.00
  CJ799.9999              1.00   0.06  0.00  0.00  0.94  0.00  0.00  0.00  0.00  0.00
  CJ80.68134              1.00   0.00  0.00  0.00  1.00  0.00  0.00  0.00  0.00  0.00
  CJ80.89927              1.00   0.00  0.00  0.00  1.00  0.00  0.00  0.00  0.00  0.00
  CJ800.0000              1.00   0.02  0.00  0.00  0.98  0.00  0.00  0.00  0.98  0.00
  CJ800.117               1.00   0.00  0.00  0.00  1.00  0.00  0.00  0.00  0.00  0.00
  CJ800.17                1.00   0.01  0.00  0.00  0.99  0.00  0.00  0.00  0.99  0.00
  CJ800.239               1.00   1.00  0.00  0.00  0.00  0.00  0.00  0.00  0.00  0.00
  CJ800.239_HC            1.00   1.00  0.00  0.00  0.00  0.00  0.00  0.00  0.00  0.00
  CJ807.2796              1.00   1.00  0.00  0.00  0.00  0.00  0.00  0.00  0.00  0.00
  CJ807.2796_HC           1.00   1.00  0.00  0.00  0.00  0.00  0.00  0.00  0.00  0.00
  CJ82.94_1               1.00   0.01  0.00  0.00  0.99  0.00  0.00  0.00  0.55  0.00
  CJ846.4642              1.00   0.06  0.00  0.00  0.93  0.00  0.00  0.00  0.94  0.00
  CJ851.915               1.00   1.00  0.00  0.00  0.00  0.00  0.00  0.00  0.00  0.00
  CJ854.56                1.00   0.03  0.00  0.00  0.00  0.96  0.00  0.00  0.00  0.00
  CJ855.869               1.00   1.00  0.00  0.00  0.00  0.00  0.00  0.00  0.00  0.00
  CJ876.147               1.00   0.00  0.00  0.00  1.00  0.00  0.00  0.00  1.00  0.00
  CJ886.2880              1.00   1.00  0.00  0.00  0.00  0.00  0.00  0.00  0.00  0.00
  CJ895.8482              1.00   0.06  0.00  0.00  0.14  0.80  0.00  0.00  0.00  0.00
  CJ899.9999              1.00   0.06  0.00  0.00  0.94  0.00  0.00  0.00  0.95  0.00
  CJ9.209                 1.00   0.00  0.00  0.00  1.00  0.00  0.00  0.00  1.00  0.00
  CJ9.902844              1.00   0.02  0.00  0.00  0.98  0.00  0.00  0.00  0.50  0.00
  CJ900.10                1.00   0.03  0.00  0.00  0.96  0.00  0.00  0.00  0.97  0.00
  CJ900.239               1.00   1.00  0.00  0.00  0.00  0.00  0.00  0.00  0.00  0.00
  CJ902.1607              1.00   0.01  0.00  0.00  0.98  0.00  0.00  0.00  0.98  0.00
  CJ902.835               1.00   1.00  0.00  0.00  0.00  0.00  0.00  0.00  0.00  0.00
  CJ904.90                1.00   0.01  0.00  0.00  0.99  0.00  0.00  0.00  0.99  0.00
  CJ91.52667              1.00   0.04  0.96  0.00  0.00  0.00  0.00  0.00  0.00  0.00
  CJ922.9622              1.00   0.01  0.00  0.00  0.99  0.00  0.00  0.00  0.47  0.00
  CJ924.0624              1.00   1.00  0.00  0.00  0.00  0.00  0.00  0.00  0.00  0.00
  CJ929.29                1.00   0.03  0.00  0.00  0.00  0.97  0.00  0.00  0.00  0.00
  CJ937.8583              1.00   0.05  0.00  0.00  0.94  0.00  0.00  0.00  0.00  0.00
  CJ945.497               1.00   0.00  0.00  0.00  1.00  0.00  0.00  0.00  0.34  0.00
  CJ955.93                1.00   0.01  0.00  0.00  0.00  0.99  0.00  0.00  0.09  0.00
  CJ956.725               1.00   1.00  0.00  0.00  0.00  0.00  0.00  0.00  0.00  0.00
  CJ963.549               1.00   1.00  0.00  0.00  0.00  0.00  0.00  0.00  0.00  0.00
  CJ964.46                1.00   0.03  0.00  0.00  0.97  0.00  0.00  0.00  0.97  0.00
  CJ966.3656              1.00   0.06  0.00  0.00  0.94  0.00  0.00  0.00  0.63  0.00
  CJ972.9335              1.00   1.00  0.00  0.00  0.00  0.00  0.00  0.00  0.00  0.00
  CJ982.0328              1.00   0.06  0.00  0.00  0.94  0.00  0.00  0.00  0.00  0.00
  CJ99.99998              1.00   0.02  0.00  0.00  0.98  0.00  0.00  0.00  0.98  0.00
  CJ992.03                1.00   0.03  0.00  0.00  0.00  0.97  0.00  0.00  0.00  0.00
  CJ999.9999              1.00   0.05  0.00  0.00  0.95  0.00  0.00  0.00  0.00  0.00
  
  
  *************************
  Conduit Surcharge Summary
  *************************
  
  ----------------------------------------------------------------------------
                                                           Hours        Hours 
                         --------- Hours Full --------   Above Full   Capacity
  Conduit                Both Ends  Upstream  Dnstream   Normal Flow   Limited
  ----------------------------------------------------------------------------
  CJ3811.191                  0.01      0.01      0.01      0.17         0.01
  CJ5660.181                  0.01      0.01      0.01      0.01         0.01
  CJ5705.508                  0.01      0.01      0.01      0.01         0.01
  CJ5816.245                  0.01      0.01      0.01      0.01         0.01
  CJ5816.245_HC               0.01      0.01     48.00      0.01         0.01
  

  Analysis begun on:  Sun Apr 12 18:50:51 2020
  Analysis ended on:  Sun Apr 12 18:51:32 2020
  Total elapsed time: 00:00:41