
  EPA STORM WATER MANAGEMENT MODEL - VERSION 5.1 (Build 5.1.013)
  --------------------------------------------------------------

  Scenario Run: BASE 
  
  
  *********************
  Rainfall File Summary
  *********************
  Station    First        Last         Recording   Periods    Periods    Periods
  ID         Date         Date         Frequency  w/Precip    Missing    Malfunc.
  -------------------------------------------------------------------------------
  rg_1       01/01/2000   01/02/2000      60 min       241          0          0

  
  *********************************************************
  NOTE: The summary statistics displayed in this report are
  based on results found at every computational time step,  
  not just on results from each reporting time step.
  *********************************************************
  
  ****************
  Analysis Options
  ****************
  Flow Units ............... CMS
  Process Models:
    Rainfall/Runoff ........ YES
    RDII ................... NO
    Snowmelt ............... NO
    Groundwater ............ NO
    Flow Routing ........... YES
    Ponding Allowed ........ NO
    Water Quality .......... NO
  Infiltration Method ...... MODIFIED_GREEN_AMPT
  Flow Routing Method ...... KINWAVE
  Starting Date ............ 01/01/2000 00:00:00
  Ending Date .............. 01/02/2000 00:00:00
  Antecedent Dry Days ...... 5.0
  Report Time Step ......... 00:05:00
  Wet Time Step ............ 00:15:00
  Dry Time Step ............ 01:00:00
  Routing Time Step ........ 60.00 sec
  
  
  **************************        Volume         Depth
  Runoff Quantity Continuity     hectare-m            mm
  **************************     ---------       -------
  Total Precipitation ......         0.119         9.888
  Evaporation Loss .........         0.000         0.000
  Infiltration Loss ........         0.029         2.430
  Surface Runoff ...........         0.087         7.231
  Final Storage ............         0.003         0.256
  Continuity Error (%) .....        -0.299
  
  
  **************************        Volume        Volume
  Flow Routing Continuity        hectare-m      10^6 ltr
  **************************     ---------     ---------
  Dry Weather Inflow .......         0.000         0.000
  Wet Weather Inflow .......         0.087         0.867
  Groundwater Inflow .......         0.000         0.000
  RDII Inflow ..............         0.000         0.000
  External Inflow ..........         0.000         0.000
  External Outflow .........         0.086         0.857
  Flooding Loss ............         0.000         0.000
  Evaporation Loss .........         0.000         0.000
  Exfiltration Loss ........         0.000         0.000
  Initial Stored Volume ....         0.000         0.000
  Final Stored Volume ......         0.000         0.005
  Continuity Error (%) .....         0.667
  
  
  ********************************
  Highest Flow Instability Indexes
  ********************************
  All links are stable.
  
  
  *************************
  Routing Time Step Summary
  *************************
  Minimum Time Step           :    60.00 sec
  Average Time Step           :    60.00 sec
  Maximum Time Step           :    60.00 sec
  Percent in Steady State     :     0.00
  Average Iterations per Step :     1.06
  Percent Not Converging      :     0.00
  
  
  ***************************
  Subcatchment Runoff Summary
  ***************************
  
  ------------------------------------------------------------------------------------------------------------------------------
                            Total      Total      Total      Total     Imperv       Perv      Total       Total     Peak  Runoff
                           Precip      Runon       Evap      Infil     Runoff     Runoff     Runoff      Runoff   Runoff   Coeff
  Subcatchment                 mm         mm         mm         mm         mm         mm         mm    10^6 ltr      CMS
  ------------------------------------------------------------------------------------------------------------------------------
  S1                         9.89       0.00       0.00       2.57       5.60       1.70       7.30        0.29     0.11   0.738
  S2                         9.89       0.00       0.00       4.70       0.93       4.27       5.20        0.21     0.08   0.526
  S3                         9.89       0.00       0.00       0.01       9.68       0.01       9.20        0.37     0.10   0.930
  

  ***********************
  LID Performance Summary
  ***********************

  --------------------------------------------------------------------------------------------------------------------
                                         Total      Evap     Infil   Surface    Drain    Initial     Final  Continuity
                                        Inflow      Loss      Loss   Outflow   Outflow   Storage   Storage       Error
  Subcatchment      LID Control             mm        mm        mm        mm        mm        mm        mm           %
  --------------------------------------------------------------------------------------------------------------------
  S3                rb                 5818.27      0.00      0.00   4818.27      0.00      0.00   1000.00       -0.00
  
  ******************
  Node Depth Summary
  ******************
  
  ---------------------------------------------------------------------------------
                                 Average  Maximum  Maximum  Time of Max    Reported
                                   Depth    Depth      HGL   Occurrence   Max Depth
  Node                 Type       Meters   Meters   Meters  days hr:min      Meters
  ---------------------------------------------------------------------------------
  J3                   JUNCTION     0.02     0.11    93.11     0  13:00        0.11
  J1                   JUNCTION     0.01     0.10    96.10     0  12:54        0.10
  J4                   JUNCTION     0.03     0.21    88.21     0  13:02        0.21
  J2                   JUNCTION     0.03     0.21    90.21     0  12:58        0.21
  OUT1                 OUTFALL      0.03     0.18    85.18     0  13:04        0.18
  
  
  *******************
  Node Inflow Summary
  *******************
  
  -------------------------------------------------------------------------------------------------
                                  Maximum  Maximum                  Lateral       Total        Flow
                                  Lateral    Total  Time of Max      Inflow      Inflow     Balance
                                   Inflow   Inflow   Occurrence      Volume      Volume       Error
  Node                 Type           CMS      CMS  days hr:min    10^6 ltr    10^6 ltr     Percent
  -------------------------------------------------------------------------------------------------
  J3                   JUNCTION     0.099    0.099     0  13:00       0.368       0.368      -0.000
  J1                   JUNCTION     0.110    0.110     0  12:54       0.292       0.292       0.000
  J4                   JUNCTION     0.000    0.277     0  13:02           0       0.861       0.000
  J2                   JUNCTION     0.079    0.182     0  12:58       0.208       0.498       0.000
  OUT1                 OUTFALL      0.000    0.272     0  13:04           0       0.857       0.000
  
  
  *********************
  Node Flooding Summary
  *********************
  
  No nodes were flooded.
  
  
  ***********************
  Outfall Loading Summary
  ***********************
  
  -----------------------------------------------------------
                         Flow       Avg       Max       Total
                         Freq      Flow      Flow      Volume
  Outfall Node           Pcnt       CMS       CMS    10^6 ltr
  -----------------------------------------------------------
  OUT1                  90.83     0.011     0.272       0.857
  -----------------------------------------------------------
  System                90.83     0.011     0.272       0.857
  
  
  ********************
  Link Flow Summary
  ********************
  
  -----------------------------------------------------------------------------
                                 Maximum  Time of Max   Maximum    Max/    Max/
                                  |Flow|   Occurrence   |Veloc|    Full    Full
  Link                 Type          CMS  days hr:min     m/sec    Flow   Depth
  -----------------------------------------------------------------------------
  C3                   CONDUIT     0.098     0  13:01      1.72    0.01    0.07
  C4                   CONDUIT     0.272     0  13:04      1.97    0.02    0.09
  C2                   CONDUIT     0.180     0  13:02      1.60    0.10    0.21
  C1                   CONDUIT     0.105     0  12:57      2.67    0.02    0.10
  
  
  *************************
  Conduit Surcharge Summary
  *************************
  
  No conduits were surcharged.
  
  
  ********************
  Subcatchment Results
  ********************
  
  <<< Subcatchment S1 >>>
  ---------------------------------------------------
  Date        Time        Precip.    Losses    Runoff
                            mm/hr     mm/hr       CMS
  ---------------------------------------------------
   01/01/2000 00:05:00      0.000     0.000    0.0000
   01/01/2000 00:10:00      0.000     0.000    0.0000
   01/01/2000 00:15:00      0.000     0.000    0.0000
   01/01/2000 00:20:00      0.000     0.000    0.0000
   01/01/2000 00:25:00      0.000     0.000    0.0000
   01/01/2000 00:30:00      0.000     0.000    0.0000
   01/01/2000 00:35:00      0.000     0.000    0.0000
   01/01/2000 00:40:00      0.000     0.000    0.0000
   01/01/2000 00:45:00      0.000     0.000    0.0000
   01/01/2000 00:50:00      0.000     0.000    0.0000
   01/01/2000 00:55:00      0.000     0.000    0.0000
   01/01/2000 01:00:00      0.101     0.000    0.0000
   01/01/2000 01:05:00      0.101     0.044    0.0000
   01/01/2000 01:10:00      0.101     0.044    0.0000
   01/01/2000 01:15:00      0.103     0.044    0.0000
   01/01/2000 01:20:00      0.103     0.044    0.0000
   01/01/2000 01:25:00      0.105     0.045    0.0000
   01/01/2000 01:30:00      0.105     0.045    0.0000
   01/01/2000 01:35:00      0.105     0.045    0.0000
   01/01/2000 01:40:00      0.107     0.046    0.0000
   01/01/2000 01:45:00      0.107     0.046    0.0000
   01/01/2000 01:50:00      0.109     0.047    0.0003
   01/01/2000 01:55:00      0.109     0.047    0.0004
   01/01/2000 02:00:00      0.111     0.048    0.0005
   01/01/2000 02:05:00      0.111     0.048    0.0005
   01/01/2000 02:10:00      0.111     0.048    0.0005
   01/01/2000 02:15:00      0.113     0.049    0.0006
   01/01/2000 02:20:00      0.113     0.049    0.0006
   01/01/2000 02:25:00      0.115     0.050    0.0006
   01/01/2000 02:30:00      0.115     0.050    0.0006
   01/01/2000 02:35:00      0.115     0.050    0.0007
   01/01/2000 02:40:00      0.117     0.050    0.0007
   01/01/2000 02:45:00      0.117     0.050    0.0007
   01/01/2000 02:50:00      0.119     0.051    0.0007
   01/01/2000 02:55:00      0.119     0.051    0.0007
   01/01/2000 03:00:00      0.121     0.051    0.0007
   01/01/2000 03:05:00      0.121     0.052    0.0007
   01/01/2000 03:10:00      0.121     0.052    0.0007
   01/01/2000 03:15:00      0.123     0.053    0.0007
   01/01/2000 03:20:00      0.123     0.053    0.0008
   01/01/2000 03:25:00      0.125     0.054    0.0008
   01/01/2000 03:30:00      0.125     0.054    0.0008
   01/01/2000 03:35:00      0.125     0.054    0.0008
   01/01/2000 03:40:00      0.127     0.055    0.0008
   01/01/2000 03:45:00      0.127     0.055    0.0008
   01/01/2000 03:50:00      0.129     0.056    0.0008
   01/01/2000 03:55:00      0.129     0.056    0.0008
   01/01/2000 04:00:00      0.131     0.056    0.0008
   01/01/2000 04:05:00      0.131     0.056    0.0008
   01/01/2000 04:10:00      0.131     0.056    0.0008
   01/01/2000 04:15:00      0.133     0.057    0.0008
   01/01/2000 04:20:00      0.133     0.057    0.0008
   01/01/2000 04:25:00      0.135     0.058    0.0008
   01/01/2000 04:30:00      0.135     0.058    0.0008
   01/01/2000 04:35:00      0.135     0.058    0.0008
   01/01/2000 04:40:00      0.137     0.059    0.0008
   01/01/2000 04:45:00      0.137     0.059    0.0008
   01/01/2000 04:50:00      0.139     0.060    0.0009
   01/01/2000 04:55:00      0.139     0.060    0.0009
   01/01/2000 05:00:00      0.141     0.060    0.0009
   01/01/2000 05:05:00      0.141     0.061    0.0009
   01/01/2000 05:10:00      0.143     0.062    0.0009
   01/01/2000 05:15:00      0.145     0.062    0.0009
   01/01/2000 05:20:00      0.147     0.063    0.0009
   01/01/2000 05:25:00      0.149     0.064    0.0009
   01/01/2000 05:30:00      0.151     0.064    0.0009
   01/01/2000 05:35:00      0.153     0.065    0.0009
   01/01/2000 05:40:00      0.153     0.066    0.0009
   01/01/2000 05:45:00      0.155     0.067    0.0009
   01/01/2000 05:50:00      0.157     0.068    0.0010
   01/01/2000 05:55:00      0.159     0.069    0.0010
   01/01/2000 06:00:00      0.161     0.069    0.0010
   01/01/2000 06:05:00      0.163     0.069    0.0010
   01/01/2000 06:10:00      0.163     0.070    0.0010
   01/01/2000 06:15:00      0.165     0.071    0.0010
   01/01/2000 06:20:00      0.167     0.072    0.0010
   01/01/2000 06:25:00      0.169     0.073    0.0010
   01/01/2000 06:30:00      0.171     0.074    0.0010
   01/01/2000 06:35:00      0.173     0.074    0.0011
   01/01/2000 06:40:00      0.173     0.075    0.0011
   01/01/2000 06:45:00      0.175     0.075    0.0011
   01/01/2000 06:50:00      0.177     0.076    0.0011
   01/01/2000 06:55:00      0.179     0.077    0.0011
   01/01/2000 07:00:00      0.181     0.078    0.0011
   01/01/2000 07:05:00      0.183     0.078    0.0011
   01/01/2000 07:10:00      0.183     0.079    0.0011
   01/01/2000 07:15:00      0.185     0.080    0.0011
   01/01/2000 07:20:00      0.187     0.081    0.0011
   01/01/2000 07:25:00      0.189     0.081    0.0012
   01/01/2000 07:30:00      0.191     0.082    0.0012
   01/01/2000 07:35:00      0.193     0.082    0.0012
   01/01/2000 07:40:00      0.193     0.083    0.0012
   01/01/2000 07:45:00      0.195     0.084    0.0012
   01/01/2000 07:50:00      0.197     0.085    0.0012
   01/01/2000 07:55:00      0.199     0.086    0.0012
   01/01/2000 08:00:00      0.201     0.087    0.0012
   01/01/2000 08:05:00      0.203     0.087    0.0012
   01/01/2000 08:10:00      0.203     0.087    0.0013
   01/01/2000 08:15:00      0.205     0.088    0.0013
   01/01/2000 08:20:00      0.207     0.089    0.0013
   01/01/2000 08:25:00      0.209     0.090    0.0013
   01/01/2000 08:30:00      0.211     0.091    0.0013
   01/01/2000 08:35:00      0.213     0.091    0.0013
   01/01/2000 08:40:00      0.213     0.092    0.0013
   01/01/2000 08:45:00      0.215     0.093    0.0013
   01/01/2000 08:50:00      0.217     0.094    0.0013
   01/01/2000 08:55:00      0.219     0.094    0.0013
   01/01/2000 09:00:00      0.225     0.097    0.0014
   01/01/2000 09:05:00      0.235     0.097    0.0014
   01/01/2000 09:10:00      0.235     0.101    0.0014
   01/01/2000 09:15:00      0.245     0.106    0.0014
   01/01/2000 09:20:00      0.255     0.110    0.0015
   01/01/2000 09:25:00      0.265     0.114    0.0015
   01/01/2000 09:30:00      0.275     0.119    0.0016
   01/01/2000 09:35:00      0.285     0.119    0.0016
   01/01/2000 09:40:00      0.285     0.123    0.0017
   01/01/2000 09:45:00      0.295     0.127    0.0017
   01/01/2000 09:50:00      0.305     0.131    0.0018
   01/01/2000 09:55:00      0.315     0.136    0.0018
   01/01/2000 10:00:00      0.320     0.138    0.0019
   01/01/2000 10:05:00      0.320     0.138    0.0019
   01/01/2000 10:10:00      0.320     0.138    0.0020
   01/01/2000 10:15:00      0.320     0.138    0.0020
   01/01/2000 10:20:00      0.320     0.138    0.0020
   01/01/2000 10:25:00      0.320     0.138    0.0020
   01/01/2000 10:30:00      0.328     0.141    0.0020
   01/01/2000 10:35:00      0.344     0.141    0.0020
   01/01/2000 10:40:00      0.344     0.148    0.0021
   01/01/2000 10:45:00      0.360     0.155    0.0021
   01/01/2000 10:50:00      0.376     0.162    0.0022
   01/01/2000 10:55:00      0.392     0.169    0.0023
   01/01/2000 11:00:00      0.412     0.178    0.0023
   01/01/2000 11:05:00      0.436     0.178    0.0024
   01/01/2000 11:10:00      0.436     0.188    0.0025
   01/01/2000 11:15:00      0.460     0.198    0.0027
   01/01/2000 11:20:00      0.484     0.209    0.0028
   01/01/2000 11:25:00      0.508     0.219    0.0029
   01/01/2000 11:30:00      0.540     0.233    0.0030
   01/01/2000 11:35:00      0.580     0.233    0.0032
   01/01/2000 11:40:00      0.580     0.250    0.0033
   01/01/2000 11:45:00      0.620     0.261    0.0035
   01/01/2000 11:50:00      0.660     0.258    0.0037
   01/01/2000 11:55:00      0.700     0.256    0.0039
   01/01/2000 12:00:00      0.768     0.254    0.0042
   01/01/2000 12:05:00      0.864     0.254    0.0045
   01/01/2000 12:10:00      0.864     0.253    0.0049
   01/01/2000 12:15:00      0.960     0.252    0.0053
   01/01/2000 12:20:00      1.056     0.251    0.0059
   01/01/2000 12:25:00      1.152     0.251    0.0065
   01/01/2000 12:30:00      2.384     0.251    0.0080
   01/01/2000 12:35:00      4.752     0.251    0.0127
   01/01/2000 12:40:00      4.752     0.255    0.0258
   01/01/2000 12:45:00      7.643     0.265    0.0460
   01/01/2000 12:50:00     13.707     0.281    0.0825
   01/01/2000 12:55:00      9.514     0.307    0.1063
   01/01/2000 13:00:00      1.896     0.310    0.0901
   01/01/2000 13:05:00      1.668     0.310    0.0474
   01/01/2000 13:10:00      1.668     0.291    0.0344
   01/01/2000 13:15:00      1.440     0.278    0.0266
   01/01/2000 13:20:00      1.212     0.269    0.0215
   01/01/2000 13:25:00      0.984     0.262    0.0177
   01/01/2000 13:30:00      0.844     0.256    0.0147
   01/01/2000 13:35:00      0.792     0.256    0.0124
   01/01/2000 13:40:00      0.792     0.251    0.0109
   01/01/2000 13:45:00      0.740     0.247    0.0096
   01/01/2000 13:50:00      0.688     0.243    0.0086
   01/01/2000 13:55:00      0.636     0.240    0.0078
   01/01/2000 14:00:00      0.596     0.238    0.0071
   01/01/2000 14:05:00      0.568     0.238    0.0064
   01/01/2000 14:10:00      0.568     0.235    0.0059
   01/01/2000 14:15:00      0.540     0.233    0.0055
   01/01/2000 14:20:00      0.512     0.231    0.0051
   01/01/2000 14:25:00      0.484     0.229    0.0047
   01/01/2000 14:30:00      0.460     0.227    0.0044
   01/01/2000 14:35:00      0.440     0.227    0.0041
   01/01/2000 14:40:00      0.440     0.226    0.0039
   01/01/2000 14:45:00      0.420     0.224    0.0036
   01/01/2000 14:50:00      0.400     0.223    0.0034
   01/01/2000 14:55:00      0.380     0.222    0.0032
   01/01/2000 15:00:00      0.367     0.220    0.0030
   01/01/2000 15:05:00      0.359     0.220    0.0028
   01/01/2000 15:10:00      0.359     0.219    0.0027
   01/01/2000 15:15:00      0.353     0.218    0.0026
   01/01/2000 15:20:00      0.345     0.217    0.0025
   01/01/2000 15:25:00      0.339     0.216    0.0024
   01/01/2000 15:30:00      0.331     0.215    0.0023
   01/01/2000 15:35:00      0.325     0.215    0.0022
   01/01/2000 15:40:00      0.325     0.214    0.0022
   01/01/2000 15:45:00      0.317     0.213    0.0021
   01/01/2000 15:50:00      0.311     0.212    0.0021
   01/01/2000 15:55:00      0.303     0.211    0.0020
   01/01/2000 16:00:00      0.297     0.210    0.0020
   01/01/2000 16:05:00      0.289     0.210    0.0020
   01/01/2000 16:10:00      0.289     0.189    0.0019
   01/01/2000 16:15:00      0.283     0.122    0.0019
   01/01/2000 16:20:00      0.275     0.119    0.0018
   01/01/2000 16:25:00      0.269     0.116    0.0018
   01/01/2000 16:30:00      0.261     0.112    0.0018
   01/01/2000 16:35:00      0.255     0.112    0.0017
   01/01/2000 16:40:00      0.255     0.110    0.0017
   01/01/2000 16:45:00      0.247     0.106    0.0017
   01/01/2000 16:50:00      0.241     0.104    0.0016
   01/01/2000 16:55:00      0.233     0.100    0.0016
   01/01/2000 17:00:00      0.229     0.099    0.0016
   01/01/2000 17:05:00      0.226     0.099    0.0015
   01/01/2000 17:10:00      0.226     0.097    0.0015
   01/01/2000 17:15:00      0.224     0.097    0.0015
   01/01/2000 17:20:00      0.221     0.095    0.0015
   01/01/2000 17:25:00      0.219     0.094    0.0014
   01/01/2000 17:30:00      0.216     0.093    0.0014
   01/01/2000 17:35:00      0.214     0.093    0.0014
   01/01/2000 17:40:00      0.214     0.092    0.0014
   01/01/2000 17:45:00      0.211     0.091    0.0014
   01/01/2000 17:50:00      0.209     0.090    0.0014
   01/01/2000 17:55:00      0.206     0.089    0.0013
   01/01/2000 18:00:00      0.204     0.088    0.0013
   01/01/2000 18:05:00      0.201     0.088    0.0013
   01/01/2000 18:10:00      0.201     0.087    0.0013
   01/01/2000 18:15:00      0.199     0.086    0.0013
   01/01/2000 18:20:00      0.196     0.084    0.0013
   01/01/2000 18:25:00      0.194     0.084    0.0013
   01/01/2000 18:30:00      0.191     0.082    0.0013
   01/01/2000 18:35:00      0.189     0.082    0.0012
   01/01/2000 18:40:00      0.189     0.081    0.0012
   01/01/2000 18:45:00      0.186     0.080    0.0012
   01/01/2000 18:50:00      0.184     0.079    0.0012
   01/01/2000 18:55:00      0.181     0.078    0.0012
   01/01/2000 19:00:00      0.179     0.077    0.0012
   01/01/2000 19:05:00      0.176     0.077    0.0012
   01/01/2000 19:10:00      0.176     0.076    0.0012
   01/01/2000 19:15:00      0.174     0.075    0.0011
   01/01/2000 19:20:00      0.171     0.074    0.0011
   01/01/2000 19:25:00      0.169     0.073    0.0011
   01/01/2000 19:30:00      0.166     0.072    0.0011
   01/01/2000 19:35:00      0.164     0.072    0.0011
   01/01/2000 19:40:00      0.164     0.071    0.0011
   01/01/2000 19:45:00      0.161     0.069    0.0011
   01/01/2000 19:50:00      0.159     0.069    0.0010
   01/01/2000 19:55:00      0.156     0.067    0.0010
   01/01/2000 20:00:00      0.154     0.067    0.0010
   01/01/2000 20:05:00      0.154     0.066    0.0010
   01/01/2000 20:10:00      0.151     0.065    0.0010
   01/01/2000 20:15:00      0.149     0.064    0.0010
   01/01/2000 20:20:00      0.146     0.063    0.0010
   01/01/2000 20:25:00      0.144     0.062    0.0010
   01/01/2000 20:30:00      0.141     0.062    0.0009
   01/01/2000 20:35:00      0.141     0.061    0.0009
   01/01/2000 20:40:00      0.139     0.060    0.0009
   01/01/2000 20:45:00      0.136     0.059    0.0009
   01/01/2000 20:50:00      0.134     0.058    0.0009
   01/01/2000 20:55:00      0.131     0.056    0.0009
   01/01/2000 21:00:00      0.130     0.056    0.0009
   01/01/2000 21:05:00      0.130     0.056    0.0009
   01/01/2000 21:10:00      0.129     0.056    0.0008
   01/01/2000 21:15:00      0.129     0.056    0.0008
   01/01/2000 21:20:00      0.128     0.055    0.0008
   01/01/2000 21:25:00      0.128     0.055    0.0008
   01/01/2000 21:30:00      0.127     0.055    0.0008
   01/01/2000 21:35:00      0.127     0.055    0.0008
   01/01/2000 21:40:00      0.127     0.055    0.0008
   01/01/2000 21:45:00      0.126     0.054    0.0008
   01/01/2000 21:50:00      0.126     0.054    0.0008
   01/01/2000 21:55:00      0.125     0.054    0.0008
   01/01/2000 22:00:00      0.125     0.054    0.0008
   01/01/2000 22:05:00      0.125     0.054    0.0008
   01/01/2000 22:10:00      0.124     0.053    0.0008
   01/01/2000 22:15:00      0.124     0.053    0.0008
   01/01/2000 22:20:00      0.123     0.053    0.0008
   01/01/2000 22:25:00      0.123     0.053    0.0008
   01/01/2000 22:30:00      0.122     0.053    0.0008
   01/01/2000 22:35:00      0.122     0.053    0.0008
   01/01/2000 22:40:00      0.122     0.053    0.0008
   01/01/2000 22:45:00      0.121     0.052    0.0008
   01/01/2000 22:50:00      0.121     0.052    0.0008
   01/01/2000 22:55:00      0.120     0.052    0.0008
   01/01/2000 23:00:00      0.120     0.052    0.0008
   01/01/2000 23:05:00      0.120     0.052    0.0008
   01/01/2000 23:10:00      0.119     0.051    0.0008
   01/01/2000 23:15:00      0.119     0.051    0.0008
   01/01/2000 23:20:00      0.118     0.051    0.0008
   01/01/2000 23:25:00      0.118     0.051    0.0008
   01/01/2000 23:30:00      0.117     0.051    0.0008
   01/01/2000 23:35:00      0.117     0.050    0.0008
   01/01/2000 23:40:00      0.117     0.050    0.0007
   01/01/2000 23:45:00      0.116     0.050    0.0007
   01/01/2000 23:50:00      0.116     0.050    0.0007
   01/01/2000 23:55:00      0.115     0.050    0.0007
   01/02/2000 00:00:00      0.115     0.050    0.0007
  
  
  <<< Subcatchment S2 >>>
  ---------------------------------------------------
  Date        Time        Precip.    Losses    Runoff
                            mm/hr     mm/hr       CMS
  ---------------------------------------------------
   01/01/2000 00:05:00      0.000     0.000    0.0000
   01/01/2000 00:10:00      0.000     0.000    0.0000
   01/01/2000 00:15:00      0.000     0.000    0.0000
   01/01/2000 00:20:00      0.000     0.000    0.0000
   01/01/2000 00:25:00      0.000     0.000    0.0000
   01/01/2000 00:30:00      0.000     0.000    0.0000
   01/01/2000 00:35:00      0.000     0.000    0.0000
   01/01/2000 00:40:00      0.000     0.000    0.0000
   01/01/2000 00:45:00      0.000     0.000    0.0000
   01/01/2000 00:50:00      0.000     0.000    0.0000
   01/01/2000 00:55:00      0.000     0.000    0.0000
   01/01/2000 01:00:00      0.101     0.000    0.0000
   01/01/2000 01:05:00      0.101     0.091    0.0000
   01/01/2000 01:10:00      0.101     0.091    0.0000
   01/01/2000 01:15:00      0.103     0.093    0.0000
   01/01/2000 01:20:00      0.103     0.093    0.0000
   01/01/2000 01:25:00      0.105     0.095    0.0000
   01/01/2000 01:30:00      0.105     0.095    0.0000
   01/01/2000 01:35:00      0.105     0.095    0.0000
   01/01/2000 01:40:00      0.107     0.097    0.0000
   01/01/2000 01:45:00      0.107     0.097    0.0000
   01/01/2000 01:50:00      0.109     0.099    0.0000
   01/01/2000 01:55:00      0.109     0.099    0.0000
   01/01/2000 02:00:00      0.111     0.101    0.0000
   01/01/2000 02:05:00      0.111     0.101    0.0000
   01/01/2000 02:10:00      0.111     0.101    0.0000
   01/01/2000 02:15:00      0.113     0.102    0.0000
   01/01/2000 02:20:00      0.113     0.102    0.0000
   01/01/2000 02:25:00      0.115     0.104    0.0000
   01/01/2000 02:30:00      0.115     0.104    0.0000
   01/01/2000 02:35:00      0.115     0.104    0.0000
   01/01/2000 02:40:00      0.117     0.106    0.0000
   01/01/2000 02:45:00      0.117     0.106    0.0000
   01/01/2000 02:50:00      0.119     0.108    0.0000
   01/01/2000 02:55:00      0.119     0.108    0.0000
   01/01/2000 03:00:00      0.121     0.108    0.0000
   01/01/2000 03:05:00      0.121     0.110    0.0000
   01/01/2000 03:10:00      0.121     0.110    0.0000
   01/01/2000 03:15:00      0.123     0.111    0.0000
   01/01/2000 03:20:00      0.123     0.111    0.0000
   01/01/2000 03:25:00      0.125     0.113    0.0000
   01/01/2000 03:30:00      0.125     0.113    0.0000
   01/01/2000 03:35:00      0.125     0.113    0.0000
   01/01/2000 03:40:00      0.127     0.115    0.0000
   01/01/2000 03:45:00      0.127     0.115    0.0000
   01/01/2000 03:50:00      0.129     0.117    0.0000
   01/01/2000 03:55:00      0.129     0.117    0.0000
   01/01/2000 04:00:00      0.131     0.117    0.0000
   01/01/2000 04:05:00      0.131     0.119    0.0000
   01/01/2000 04:10:00      0.131     0.119    0.0000
   01/01/2000 04:15:00      0.133     0.120    0.0000
   01/01/2000 04:20:00      0.133     0.120    0.0000
   01/01/2000 04:25:00      0.135     0.122    0.0000
   01/01/2000 04:30:00      0.135     0.122    0.0000
   01/01/2000 04:35:00      0.135     0.122    0.0000
   01/01/2000 04:40:00      0.137     0.124    0.0000
   01/01/2000 04:45:00      0.137     0.124    0.0000
   01/01/2000 04:50:00      0.139     0.126    0.0000
   01/01/2000 04:55:00      0.139     0.126    0.0000
   01/01/2000 05:00:00      0.141     0.126    0.0000
   01/01/2000 05:05:00      0.141     0.128    0.0000
   01/01/2000 05:10:00      0.143     0.130    0.0000
   01/01/2000 05:15:00      0.145     0.131    0.0000
   01/01/2000 05:20:00      0.147     0.133    0.0000
   01/01/2000 05:25:00      0.149     0.135    0.0000
   01/01/2000 05:30:00      0.151     0.135    0.0000
   01/01/2000 05:35:00      0.153     0.137    0.0000
   01/01/2000 05:40:00      0.153     0.139    0.0000
   01/01/2000 05:45:00      0.155     0.140    0.0000
   01/01/2000 05:50:00      0.157     0.142    0.0000
   01/01/2000 05:55:00      0.159     0.144    0.0000
   01/01/2000 06:00:00      0.161     0.146    0.0000
   01/01/2000 06:05:00      0.163     0.146    0.0000
   01/01/2000 06:10:00      0.163     0.148    0.0000
   01/01/2000 06:15:00      0.165     0.149    0.0000
   01/01/2000 06:20:00      0.167     0.151    0.0000
   01/01/2000 06:25:00      0.169     0.153    0.0000
   01/01/2000 06:30:00      0.171     0.155    0.0000
   01/01/2000 06:35:00      0.173     0.155    0.0000
   01/01/2000 06:40:00      0.173     0.157    0.0000
   01/01/2000 06:45:00      0.175     0.158    0.0000
   01/01/2000 06:50:00      0.177     0.160    0.0000
   01/01/2000 06:55:00      0.179     0.162    0.0000
   01/01/2000 07:00:00      0.181     0.164    0.0000
   01/01/2000 07:05:00      0.183     0.164    0.0000
   01/01/2000 07:10:00      0.183     0.166    0.0000
   01/01/2000 07:15:00      0.185     0.168    0.0000
   01/01/2000 07:20:00      0.187     0.169    0.0000
   01/01/2000 07:25:00      0.189     0.171    0.0000
   01/01/2000 07:30:00      0.191     0.173    0.0000
   01/01/2000 07:35:00      0.193     0.173    0.0000
   01/01/2000 07:40:00      0.193     0.175    0.0000
   01/01/2000 07:45:00      0.195     0.177    0.0000
   01/01/2000 07:50:00      0.197     0.178    0.0000
   01/01/2000 07:55:00      0.199     0.180    0.0000
   01/01/2000 08:00:00      0.201     0.182    0.0000
   01/01/2000 08:05:00      0.203     0.182    0.0000
   01/01/2000 08:10:00      0.203     0.184    0.0000
   01/01/2000 08:15:00      0.205     0.186    0.0000
   01/01/2000 08:20:00      0.207     0.187    0.0000
   01/01/2000 08:25:00      0.209     0.189    0.0000
   01/01/2000 08:30:00      0.211     0.191    0.0000
   01/01/2000 08:35:00      0.213     0.191    0.0000
   01/01/2000 08:40:00      0.213     0.193    0.0000
   01/01/2000 08:45:00      0.215     0.195    0.0000
   01/01/2000 08:50:00      0.217     0.197    0.0000
   01/01/2000 08:55:00      0.219     0.198    0.0000
   01/01/2000 09:00:00      0.225     0.204    0.0000
   01/01/2000 09:05:00      0.235     0.204    0.0000
   01/01/2000 09:10:00      0.235     0.213    0.0000
   01/01/2000 09:15:00      0.245     0.222    0.0000
   01/01/2000 09:20:00      0.255     0.231    0.0000
   01/01/2000 09:25:00      0.265     0.240    0.0000
   01/01/2000 09:30:00      0.275     0.249    0.0000
   01/01/2000 09:35:00      0.285     0.249    0.0003
   01/01/2000 09:40:00      0.285     0.258    0.0003
   01/01/2000 09:45:00      0.295     0.267    0.0003
   01/01/2000 09:50:00      0.305     0.276    0.0003
   01/01/2000 09:55:00      0.315     0.285    0.0003
   01/01/2000 10:00:00      0.320     0.290    0.0003
   01/01/2000 10:05:00      0.320     0.290    0.0003
   01/01/2000 10:10:00      0.320     0.290    0.0003
   01/01/2000 10:15:00      0.320     0.290    0.0003
   01/01/2000 10:20:00      0.320     0.290    0.0003
   01/01/2000 10:25:00      0.320     0.290    0.0003
   01/01/2000 10:30:00      0.328     0.297    0.0003
   01/01/2000 10:35:00      0.344     0.297    0.0003
   01/01/2000 10:40:00      0.344     0.312    0.0004
   01/01/2000 10:45:00      0.360     0.326    0.0004
   01/01/2000 10:50:00      0.376     0.341    0.0004
   01/01/2000 10:55:00      0.392     0.346    0.0004
   01/01/2000 11:00:00      0.412     0.344    0.0004
   01/01/2000 11:05:00      0.436     0.344    0.0004
   01/01/2000 11:10:00      0.436     0.342    0.0004
   01/01/2000 11:15:00      0.460     0.340    0.0005
   01/01/2000 11:20:00      0.484     0.338    0.0005
   01/01/2000 11:25:00      0.508     0.337    0.0005
   01/01/2000 11:30:00      0.540     0.336    0.0005
   01/01/2000 11:35:00      0.580     0.336    0.0006
   01/01/2000 11:40:00      0.580     0.335    0.0006
   01/01/2000 11:45:00      0.620     0.334    0.0007
   01/01/2000 11:50:00      0.660     0.333    0.0009
   01/01/2000 11:55:00      0.700     0.333    0.0010
   01/01/2000 12:00:00      0.768     0.333    0.0012
   01/01/2000 12:05:00      0.864     0.333    0.0014
   01/01/2000 12:10:00      0.864     0.333    0.0018
   01/01/2000 12:15:00      0.960     0.333    0.0022
   01/01/2000 12:20:00      1.056     0.334    0.0026
   01/01/2000 12:25:00      1.152     0.335    0.0032
   01/01/2000 12:30:00      2.384     0.336    0.0042
   01/01/2000 12:35:00      4.752     0.336    0.0071
   01/01/2000 12:40:00      4.752     0.343    0.0147
   01/01/2000 12:45:00      7.643     0.358    0.0274
   01/01/2000 12:50:00     13.707     0.382    0.0525
   01/01/2000 12:55:00      9.514     0.423    0.0742
   01/01/2000 13:00:00      1.896     0.432    0.0747
   01/01/2000 13:05:00      1.668     0.432    0.0528
   01/01/2000 13:10:00      1.668     0.408    0.0427
   01/01/2000 13:15:00      1.440     0.391    0.0351
   01/01/2000 13:20:00      1.212     0.378    0.0292
   01/01/2000 13:25:00      0.984     0.367    0.0245
   01/01/2000 13:30:00      0.844     0.358    0.0206
   01/01/2000 13:35:00      0.792     0.358    0.0176
   01/01/2000 13:40:00      0.792     0.350    0.0153
   01/01/2000 13:45:00      0.740     0.344    0.0134
   01/01/2000 13:50:00      0.688     0.339    0.0118
   01/01/2000 13:55:00      0.636     0.334    0.0105
   01/01/2000 14:00:00      0.596     0.330    0.0094
   01/01/2000 14:05:00      0.568     0.330    0.0084
   01/01/2000 14:10:00      0.568     0.327    0.0076
   01/01/2000 14:15:00      0.540     0.323    0.0069
   01/01/2000 14:20:00      0.512     0.321    0.0063
   01/01/2000 14:25:00      0.484     0.318    0.0057
   01/01/2000 14:30:00      0.460     0.316    0.0052
   01/01/2000 14:35:00      0.440     0.316    0.0048
   01/01/2000 14:40:00      0.440     0.313    0.0044
   01/01/2000 14:45:00      0.420     0.311    0.0041
   01/01/2000 14:50:00      0.400     0.309    0.0037
   01/01/2000 14:55:00      0.380     0.308    0.0034
   01/01/2000 15:00:00      0.367     0.306    0.0032
   01/01/2000 15:05:00      0.359     0.306    0.0029
   01/01/2000 15:10:00      0.359     0.304    0.0027
   01/01/2000 15:15:00      0.353     0.303    0.0025
   01/01/2000 15:20:00      0.345     0.301    0.0023
   01/01/2000 15:25:00      0.339     0.300    0.0022
   01/01/2000 15:30:00      0.331     0.299    0.0020
   01/01/2000 15:35:00      0.325     0.299    0.0019
   01/01/2000 15:40:00      0.325     0.298    0.0018
   01/01/2000 15:45:00      0.317     0.296    0.0017
   01/01/2000 15:50:00      0.311     0.295    0.0015
   01/01/2000 15:55:00      0.303     0.294    0.0014
   01/01/2000 16:00:00      0.297     0.293    0.0013
   01/01/2000 16:05:00      0.289     0.293    0.0013
   01/01/2000 16:10:00      0.289     0.292    0.0012
   01/01/2000 16:15:00      0.283     0.291    0.0011
   01/01/2000 16:20:00      0.275     0.290    0.0010
   01/01/2000 16:25:00      0.269     0.289    0.0009
   01/01/2000 16:30:00      0.261     0.289    0.0009
   01/01/2000 16:35:00      0.255     0.289    0.0008
   01/01/2000 16:40:00      0.255     0.288    0.0007
   01/01/2000 16:45:00      0.247     0.287    0.0007
   01/01/2000 16:50:00      0.241     0.286    0.0006
   01/01/2000 16:55:00      0.233     0.285    0.0006
   01/01/2000 17:00:00      0.229     0.284    0.0005
   01/01/2000 17:05:00      0.226     0.284    0.0005
   01/01/2000 17:10:00      0.226     0.284    0.0004
   01/01/2000 17:15:00      0.224     0.283    0.0004
   01/01/2000 17:20:00      0.221     0.282    0.0004
   01/01/2000 17:25:00      0.219     0.282    0.0003
   01/01/2000 17:30:00      0.216     0.281    0.0003
   01/01/2000 17:35:00      0.214     0.281    0.0000
   01/01/2000 17:40:00      0.214     0.280    0.0000
   01/01/2000 17:45:00      0.211     0.279    0.0000
   01/01/2000 17:50:00      0.209     0.279    0.0000
   01/01/2000 17:55:00      0.206     0.278    0.0000
   01/01/2000 18:00:00      0.204     0.278    0.0000
   01/01/2000 18:05:00      0.201     0.278    0.0000
   01/01/2000 18:10:00      0.201     0.277    0.0000
   01/01/2000 18:15:00      0.199     0.276    0.0000
   01/01/2000 18:20:00      0.196     0.207    0.0000
   01/01/2000 18:25:00      0.194     0.176    0.0000
   01/01/2000 18:30:00      0.191     0.173    0.0000
   01/01/2000 18:35:00      0.189     0.173    0.0000
   01/01/2000 18:40:00      0.189     0.171    0.0000
   01/01/2000 18:45:00      0.186     0.168    0.0000
   01/01/2000 18:50:00      0.184     0.167    0.0000
   01/01/2000 18:55:00      0.181     0.164    0.0000
   01/01/2000 19:00:00      0.179     0.162    0.0000
   01/01/2000 19:05:00      0.176     0.162    0.0000
   01/01/2000 19:10:00      0.176     0.159    0.0000
   01/01/2000 19:15:00      0.174     0.158    0.0000
   01/01/2000 19:20:00      0.171     0.155    0.0000
   01/01/2000 19:25:00      0.169     0.153    0.0000
   01/01/2000 19:30:00      0.166     0.150    0.0000
   01/01/2000 19:35:00      0.164     0.150    0.0000
   01/01/2000 19:40:00      0.164     0.149    0.0000
   01/01/2000 19:45:00      0.161     0.146    0.0000
   01/01/2000 19:50:00      0.159     0.144    0.0000
   01/01/2000 19:55:00      0.156     0.141    0.0000
   01/01/2000 20:00:00      0.154     0.141    0.0000
   01/01/2000 20:05:00      0.154     0.139    0.0000
   01/01/2000 20:10:00      0.151     0.137    0.0000
   01/01/2000 20:15:00      0.149     0.135    0.0000
   01/01/2000 20:20:00      0.146     0.132    0.0000
   01/01/2000 20:25:00      0.144     0.130    0.0000
   01/01/2000 20:30:00      0.141     0.130    0.0000
   01/01/2000 20:35:00      0.141     0.128    0.0000
   01/01/2000 20:40:00      0.139     0.126    0.0000
   01/01/2000 20:45:00      0.136     0.123    0.0000
   01/01/2000 20:50:00      0.134     0.121    0.0000
   01/01/2000 20:55:00      0.131     0.119    0.0000
   01/01/2000 21:00:00      0.130     0.119    0.0000
   01/01/2000 21:05:00      0.130     0.118    0.0000
   01/01/2000 21:10:00      0.129     0.117    0.0000
   01/01/2000 21:15:00      0.129     0.117    0.0000
   01/01/2000 21:20:00      0.128     0.116    0.0000
   01/01/2000 21:25:00      0.128     0.116    0.0000
   01/01/2000 21:30:00      0.127     0.116    0.0000
   01/01/2000 21:35:00      0.127     0.115    0.0000
   01/01/2000 21:40:00      0.127     0.115    0.0000
   01/01/2000 21:45:00      0.126     0.114    0.0000
   01/01/2000 21:50:00      0.126     0.114    0.0000
   01/01/2000 21:55:00      0.125     0.113    0.0000
   01/01/2000 22:00:00      0.125     0.113    0.0000
   01/01/2000 22:05:00      0.125     0.113    0.0000
   01/01/2000 22:10:00      0.124     0.112    0.0000
   01/01/2000 22:15:00      0.124     0.112    0.0000
   01/01/2000 22:20:00      0.123     0.111    0.0000
   01/01/2000 22:25:00      0.123     0.111    0.0000
   01/01/2000 22:30:00      0.122     0.111    0.0000
   01/01/2000 22:35:00      0.122     0.110    0.0000
   01/01/2000 22:40:00      0.122     0.110    0.0000
   01/01/2000 22:45:00      0.121     0.110    0.0000
   01/01/2000 22:50:00      0.121     0.110    0.0000
   01/01/2000 22:55:00      0.120     0.109    0.0000
   01/01/2000 23:00:00      0.120     0.109    0.0000
   01/01/2000 23:05:00      0.120     0.109    0.0000
   01/01/2000 23:10:00      0.119     0.108    0.0000
   01/01/2000 23:15:00      0.119     0.108    0.0000
   01/01/2000 23:20:00      0.118     0.107    0.0000
   01/01/2000 23:25:00      0.118     0.107    0.0000
   01/01/2000 23:30:00      0.117     0.107    0.0000
   01/01/2000 23:35:00      0.117     0.106    0.0000
   01/01/2000 23:40:00      0.117     0.106    0.0000
   01/01/2000 23:45:00      0.116     0.105    0.0000
   01/01/2000 23:50:00      0.116     0.105    0.0000
   01/01/2000 23:55:00      0.115     0.104    0.0000
   01/02/2000 00:00:00      0.115     0.104    0.0000
  
  
  <<< Subcatchment S3 >>>
  ---------------------------------------------------
  Date        Time        Precip.    Losses    Runoff
                            mm/hr     mm/hr       CMS
  ---------------------------------------------------
   01/01/2000 00:05:00      0.000     0.000    0.0000
   01/01/2000 00:10:00      0.000     0.000    0.0000
   01/01/2000 00:15:00      0.000     0.000    0.0000
   01/01/2000 00:20:00      0.000     0.000    0.0000
   01/01/2000 00:25:00      0.000     0.000    0.0000
   01/01/2000 00:30:00      0.000     0.000    0.0000
   01/01/2000 00:35:00      0.000     0.000    0.0000
   01/01/2000 00:40:00      0.000     0.000    0.0000
   01/01/2000 00:45:00      0.000     0.000    0.0000
   01/01/2000 00:50:00      0.000     0.000    0.0000
   01/01/2000 00:55:00      0.000     0.000    0.0000
   01/01/2000 01:00:00      0.101     0.000    0.0000
   01/01/2000 01:05:00      0.101     0.000    0.0000
   01/01/2000 01:10:00      0.101     0.000    0.0000
   01/01/2000 01:15:00      0.103     0.000    0.0000
   01/01/2000 01:20:00      0.103     0.000    0.0000
   01/01/2000 01:25:00      0.105     0.000    0.0000
   01/01/2000 01:30:00      0.105     0.000    0.0000
   01/01/2000 01:35:00      0.105     0.000    0.0000
   01/01/2000 01:40:00      0.107     0.000    0.0000
   01/01/2000 01:45:00      0.107     0.000    0.0000
   01/01/2000 01:50:00      0.109     0.000    0.0000
   01/01/2000 01:55:00      0.109     0.000    0.0000
   01/01/2000 02:00:00      0.111     0.000    0.0000
   01/01/2000 02:05:00      0.111     0.000    0.0000
   01/01/2000 02:10:00      0.111     0.000    0.0000
   01/01/2000 02:15:00      0.113     0.000    0.0000
   01/01/2000 02:20:00      0.113     0.000    0.0003
   01/01/2000 02:25:00      0.115     0.000    0.0003
   01/01/2000 02:30:00      0.115     0.000    0.0004
   01/01/2000 02:35:00      0.115     0.000    0.0004
   01/01/2000 02:40:00      0.117     0.000    0.0004
   01/01/2000 02:45:00      0.117     0.000    0.0005
   01/01/2000 02:50:00      0.119     0.000    0.0005
   01/01/2000 02:55:00      0.119     0.000    0.0005
   01/01/2000 03:00:00      0.121     0.000    0.0006
   01/01/2000 03:05:00      0.121     0.000    0.0006
   01/01/2000 03:10:00      0.121     0.000    0.0006
   01/01/2000 03:15:00      0.123     0.000    0.0006
   01/01/2000 03:20:00      0.123     0.000    0.0007
   01/01/2000 03:25:00      0.125     0.000    0.0007
   01/01/2000 03:30:00      0.125     0.000    0.0007
   01/01/2000 03:35:00      0.125     0.000    0.0007
   01/01/2000 03:40:00      0.127     0.000    0.0008
   01/01/2000 03:45:00      0.127     0.000    0.0008
   01/01/2000 03:50:00      0.129     0.000    0.0008
   01/01/2000 03:55:00      0.129     0.000    0.0008
   01/01/2000 04:00:00      0.131     0.000    0.0008
   01/01/2000 04:05:00      0.131     0.000    0.0008
   01/01/2000 04:10:00      0.131     0.000    0.0009
   01/01/2000 04:15:00      0.133     0.000    0.0009
   01/01/2000 04:20:00      0.133     0.000    0.0009
   01/01/2000 04:25:00      0.135     0.000    0.0009
   01/01/2000 04:30:00      0.135     0.000    0.0009
   01/01/2000 04:35:00      0.135     0.000    0.0009
   01/01/2000 04:40:00      0.137     0.000    0.0009
   01/01/2000 04:45:00      0.137     0.000    0.0010
   01/01/2000 04:50:00      0.139     0.000    0.0010
   01/01/2000 04:55:00      0.139     0.000    0.0010
   01/01/2000 05:00:00      0.141     0.000    0.0010
   01/01/2000 05:05:00      0.141     0.000    0.0010
   01/01/2000 05:10:00      0.143     0.000    0.0010
   01/01/2000 05:15:00      0.145     0.000    0.0010
   01/01/2000 05:20:00      0.147     0.000    0.0010
   01/01/2000 05:25:00      0.149     0.000    0.0010
   01/01/2000 05:30:00      0.151     0.000    0.0011
   01/01/2000 05:35:00      0.153     0.000    0.0011
   01/01/2000 05:40:00      0.153     0.000    0.0011
   01/01/2000 05:45:00      0.155     0.000    0.0011
   01/01/2000 05:50:00      0.157     0.000    0.0011
   01/01/2000 05:55:00      0.159     0.000    0.0011
   01/01/2000 06:00:00      0.161     0.000    0.0011
   01/01/2000 06:05:00      0.163     0.000    0.0011
   01/01/2000 06:10:00      0.163     0.000    0.0011
   01/01/2000 06:15:00      0.165     0.000    0.0012
   01/01/2000 06:20:00      0.167     0.000    0.0012
   01/01/2000 06:25:00      0.169     0.000    0.0012
   01/01/2000 06:30:00      0.171     0.000    0.0012
   01/01/2000 06:35:00      0.173     0.000    0.0012
   01/01/2000 06:40:00      0.173     0.000    0.0012
   01/01/2000 06:45:00      0.175     0.000    0.0012
   01/01/2000 06:50:00      0.177     0.000    0.0013
   01/01/2000 06:55:00      0.179     0.000    0.0013
   01/01/2000 07:00:00      0.181     0.000    0.0013
   01/01/2000 07:05:00      0.183     0.000    0.0013
   01/01/2000 07:10:00      0.183     0.000    0.0013
   01/01/2000 07:15:00      0.185     0.000    0.0013
   01/01/2000 07:20:00      0.187     0.000    0.0013
   01/01/2000 07:25:00      0.189     0.000    0.0013
   01/01/2000 07:30:00      0.191     0.000    0.0014
   01/01/2000 07:35:00      0.193     0.000    0.0014
   01/01/2000 07:40:00      0.193     0.000    0.0014
   01/01/2000 07:45:00      0.195     0.000    0.0014
   01/01/2000 07:50:00      0.197     0.000    0.0014
   01/01/2000 07:55:00      0.199     0.000    0.0014
   01/01/2000 08:00:00      0.201     0.000    0.0014
   01/01/2000 08:05:00      0.203     0.000    0.0015
   01/01/2000 08:10:00      0.203     0.000    0.0015
   01/01/2000 08:15:00      0.205     0.000    0.0015
   01/01/2000 08:20:00      0.207     0.000    0.0015
   01/01/2000 08:25:00      0.209     0.001    0.0015
   01/01/2000 08:30:00      0.211     0.001    0.0015
   01/01/2000 08:35:00      0.213     0.001    0.0015
   01/01/2000 08:40:00      0.213     0.001    0.0015
   01/01/2000 08:45:00      0.215     0.001    0.0016
   01/01/2000 08:50:00      0.217     0.001    0.0016
   01/01/2000 08:55:00      0.219     0.001    0.0016
   01/01/2000 09:00:00      0.225     0.001    0.0016
   01/01/2000 09:05:00      0.235     0.001    0.0016
   01/01/2000 09:10:00      0.235     0.001    0.0016
   01/01/2000 09:15:00      0.245     0.001    0.0017
   01/01/2000 09:20:00      0.255     0.001    0.0017
   01/01/2000 09:25:00      0.265     0.001    0.0017
   01/01/2000 09:30:00      0.275     0.001    0.0018
   01/01/2000 09:35:00      0.285     0.001    0.0018
   01/01/2000 09:40:00      0.285     0.001    0.0019
   01/01/2000 09:45:00      0.295     0.001    0.0019
   01/01/2000 09:50:00      0.305     0.001    0.0020
   01/01/2000 09:55:00      0.315     0.001    0.0020
   01/01/2000 10:00:00      0.320     0.001    0.0021
   01/01/2000 10:05:00      0.320     0.001    0.0021
   01/01/2000 10:10:00      0.320     0.001    0.0022
   01/01/2000 10:15:00      0.320     0.001    0.0022
   01/01/2000 10:20:00      0.320     0.001    0.0022
   01/01/2000 10:25:00      0.320     0.001    0.0023
   01/01/2000 10:30:00      0.328     0.001    0.0023
   01/01/2000 10:35:00      0.344     0.001    0.0023
   01/01/2000 10:40:00      0.344     0.001    0.0024
   01/01/2000 10:45:00      0.360     0.001    0.0024
   01/01/2000 10:50:00      0.376     0.001    0.0025
   01/01/2000 10:55:00      0.392     0.001    0.0026
   01/01/2000 11:00:00      0.412     0.001    0.0026
   01/01/2000 11:05:00      0.436     0.001    0.0027
   01/01/2000 11:10:00      0.436     0.001    0.0028
   01/01/2000 11:15:00      0.460     0.001    0.0029
   01/01/2000 11:20:00      0.484     0.001    0.0030
   01/01/2000 11:25:00      0.508     0.001    0.0031
   01/01/2000 11:30:00      0.540     0.001    0.0034
   01/01/2000 11:35:00      0.580     0.001    0.0045
   01/01/2000 11:40:00      0.580     0.001    0.0050
   01/01/2000 11:45:00      0.620     0.001    0.0054
   01/01/2000 11:50:00      0.660     0.001    0.0056
   01/01/2000 11:55:00      0.700     0.001    0.0059
   01/01/2000 12:00:00      0.768     0.001    0.0063
   01/01/2000 12:05:00      0.864     0.001    0.0066
   01/01/2000 12:10:00      0.864     0.001    0.0071
   01/01/2000 12:15:00      0.960     0.001    0.0077
   01/01/2000 12:20:00      1.056     0.001    0.0084
   01/01/2000 12:25:00      1.152     0.001    0.0091
   01/01/2000 12:30:00      2.384     0.001    0.0104
   01/01/2000 12:35:00      4.752     0.001    0.0138
   01/01/2000 12:40:00      4.752     0.001    0.0232
   01/01/2000 12:45:00      7.643     0.001    0.0392
   01/01/2000 12:50:00     13.707     0.001    0.0693
   01/01/2000 12:55:00      9.514     0.001    0.0945
   01/01/2000 13:00:00      1.896     0.001    0.0928
   01/01/2000 13:05:00      1.668     0.001    0.0636
   01/01/2000 13:10:00      1.668     0.001    0.0486
   01/01/2000 13:15:00      1.440     0.001    0.0383
   01/01/2000 13:20:00      1.212     0.001    0.0312
   01/01/2000 13:25:00      0.984     0.001    0.0258
   01/01/2000 13:30:00      0.844     0.001    0.0217
   01/01/2000 13:35:00      0.792     0.001    0.0185
   01/01/2000 13:40:00      0.792     0.001    0.0163
   01/01/2000 13:45:00      0.740     0.001    0.0145
   01/01/2000 13:50:00      0.688     0.001    0.0130
   01/01/2000 13:55:00      0.636     0.001    0.0118
   01/01/2000 14:00:00      0.596     0.001    0.0108
   01/01/2000 14:05:00      0.568     0.001    0.0100
   01/01/2000 14:10:00      0.568     0.001    0.0093
   01/01/2000 14:15:00      0.540     0.001    0.0087
   01/01/2000 14:20:00      0.512     0.001    0.0081
   01/01/2000 14:25:00      0.484     0.001    0.0077
   01/01/2000 14:30:00      0.460     0.001    0.0073
   01/01/2000 14:35:00      0.440     0.001    0.0069
   01/01/2000 14:40:00      0.440     0.001    0.0065
   01/01/2000 14:45:00      0.420     0.001    0.0062
   01/01/2000 14:50:00      0.400     0.001    0.0060
   01/01/2000 14:55:00      0.380     0.001    0.0057
   01/01/2000 15:00:00      0.367     0.001    0.0055
   01/01/2000 15:05:00      0.359     0.001    0.0052
   01/01/2000 15:10:00      0.359     0.001    0.0050
   01/01/2000 15:15:00      0.353     0.001    0.0049
   01/01/2000 15:20:00      0.345     0.001    0.0047
   01/01/2000 15:25:00      0.339     0.001    0.0046
   01/01/2000 15:30:00      0.331     0.001    0.0045
   01/01/2000 15:35:00      0.325     0.001    0.0043
   01/01/2000 15:40:00      0.325     0.001    0.0042
   01/01/2000 15:45:00      0.317     0.001    0.0041
   01/01/2000 15:50:00      0.311     0.001    0.0040
   01/01/2000 15:55:00      0.303     0.001    0.0040
   01/01/2000 16:00:00      0.297     0.001    0.0039
   01/01/2000 16:05:00      0.289     0.001    0.0038
   01/01/2000 16:10:00      0.289     0.001    0.0037
   01/01/2000 16:15:00      0.283     0.001    0.0036
   01/01/2000 16:20:00      0.275     0.001    0.0036
   01/01/2000 16:25:00      0.269     0.001    0.0035
   01/01/2000 16:30:00      0.261     0.001    0.0034
   01/01/2000 16:35:00      0.255     0.001    0.0033
   01/01/2000 16:40:00      0.255     0.001    0.0033
   01/01/2000 16:45:00      0.247     0.001    0.0032
   01/01/2000 16:50:00      0.241     0.001    0.0031
   01/01/2000 16:55:00      0.233     0.001    0.0031
   01/01/2000 17:00:00      0.229     0.001    0.0030
   01/01/2000 17:05:00      0.226     0.001    0.0030
   01/01/2000 17:10:00      0.226     0.001    0.0029
   01/01/2000 17:15:00      0.224     0.001    0.0028
   01/01/2000 17:20:00      0.221     0.001    0.0028
   01/01/2000 17:25:00      0.219     0.001    0.0028
   01/01/2000 17:30:00      0.216     0.001    0.0027
   01/01/2000 17:35:00      0.214     0.001    0.0027
   01/01/2000 17:40:00      0.214     0.001    0.0026
   01/01/2000 17:45:00      0.211     0.001    0.0026
   01/01/2000 17:50:00      0.209     0.001    0.0026
   01/01/2000 17:55:00      0.206     0.000    0.0025
   01/01/2000 18:00:00      0.204     0.000    0.0025
   01/01/2000 18:05:00      0.201     0.000    0.0025
   01/01/2000 18:10:00      0.201     0.000    0.0025
   01/01/2000 18:15:00      0.199     0.000    0.0024
   01/01/2000 18:20:00      0.196     0.000    0.0024
   01/01/2000 18:25:00      0.194     0.000    0.0024
   01/01/2000 18:30:00      0.191     0.000    0.0023
   01/01/2000 18:35:00      0.189     0.000    0.0023
   01/01/2000 18:40:00      0.189     0.000    0.0023
   01/01/2000 18:45:00      0.186     0.000    0.0023
   01/01/2000 18:50:00      0.184     0.000    0.0022
   01/01/2000 18:55:00      0.181     0.000    0.0022
   01/01/2000 19:00:00      0.179     0.000    0.0022
   01/01/2000 19:05:00      0.176     0.000    0.0022
   01/01/2000 19:10:00      0.176     0.000    0.0021
   01/01/2000 19:15:00      0.174     0.000    0.0021
   01/01/2000 19:20:00      0.171     0.000    0.0021
   01/01/2000 19:25:00      0.169     0.000    0.0021
   01/01/2000 19:30:00      0.166     0.000    0.0021
   01/01/2000 19:35:00      0.164     0.000    0.0020
   01/01/2000 19:40:00      0.164     0.000    0.0020
   01/01/2000 19:45:00      0.161     0.000    0.0020
   01/01/2000 19:50:00      0.159     0.000    0.0020
   01/01/2000 19:55:00      0.156     0.000    0.0019
   01/01/2000 20:00:00      0.154     0.000    0.0019
   01/01/2000 20:05:00      0.154     0.000    0.0019
   01/01/2000 20:10:00      0.151     0.000    0.0019
   01/01/2000 20:15:00      0.149     0.000    0.0018
   01/01/2000 20:20:00      0.146     0.000    0.0018
   01/01/2000 20:25:00      0.144     0.000    0.0018
   01/01/2000 20:30:00      0.141     0.000    0.0018
   01/01/2000 20:35:00      0.141     0.000    0.0018
   01/01/2000 20:40:00      0.139     0.000    0.0017
   01/01/2000 20:45:00      0.136     0.000    0.0017
   01/01/2000 20:50:00      0.134     0.000    0.0017
   01/01/2000 20:55:00      0.131     0.000    0.0017
   01/01/2000 21:00:00      0.130     0.000    0.0016
   01/01/2000 21:05:00      0.130     0.000    0.0016
   01/01/2000 21:10:00      0.129     0.000    0.0016
   01/01/2000 21:15:00      0.129     0.000    0.0016
   01/01/2000 21:20:00      0.128     0.000    0.0016
   01/01/2000 21:25:00      0.128     0.000    0.0016
   01/01/2000 21:30:00      0.127     0.000    0.0015
   01/01/2000 21:35:00      0.127     0.000    0.0015
   01/01/2000 21:40:00      0.127     0.000    0.0015
   01/01/2000 21:45:00      0.126     0.000    0.0015
   01/01/2000 21:50:00      0.126     0.000    0.0015
   01/01/2000 21:55:00      0.125     0.000    0.0015
   01/01/2000 22:00:00      0.125     0.000    0.0015
   01/01/2000 22:05:00      0.125     0.000    0.0015
   01/01/2000 22:10:00      0.124     0.000    0.0015
   01/01/2000 22:15:00      0.124     0.000    0.0015
   01/01/2000 22:20:00      0.123     0.000    0.0014
   01/01/2000 22:25:00      0.123     0.000    0.0014
   01/01/2000 22:30:00      0.122     0.000    0.0014
   01/01/2000 22:35:00      0.122     0.000    0.0014
   01/01/2000 22:40:00      0.122     0.000    0.0014
   01/01/2000 22:45:00      0.121     0.000    0.0014
   01/01/2000 22:50:00      0.121     0.000    0.0014
   01/01/2000 22:55:00      0.120     0.000    0.0014
   01/01/2000 23:00:00      0.120     0.000    0.0014
   01/01/2000 23:05:00      0.120     0.000    0.0014
   01/01/2000 23:10:00      0.119     0.000    0.0014
   01/01/2000 23:15:00      0.119     0.000    0.0014
   01/01/2000 23:20:00      0.118     0.000    0.0014
   01/01/2000 23:25:00      0.118     0.000    0.0014
   01/01/2000 23:30:00      0.117     0.000    0.0014
   01/01/2000 23:35:00      0.117     0.000    0.0014
   01/01/2000 23:40:00      0.117     0.000    0.0013
   01/01/2000 23:45:00      0.116     0.000    0.0013
   01/01/2000 23:50:00      0.116     0.000    0.0013
   01/01/2000 23:55:00      0.115     0.000    0.0013
   01/02/2000 00:00:00      0.115     0.000    0.0013
  
  
  ************
  Node Results
  ************
  
  <<< Node J3 >>>
  ----------------------------------------------------------------
                           Inflow  Flooding     Depth      Head
  Date        Time            CMS       CMS    meters    meters
  ----------------------------------------------------------------
   01/01/2000 00:05:00      0.000     0.000     0.000    93.000
   01/01/2000 00:10:00      0.000     0.000     0.000    93.000
   01/01/2000 00:15:00      0.000     0.000     0.000    93.000
   01/01/2000 00:20:00      0.000     0.000     0.000    93.000
   01/01/2000 00:25:00      0.000     0.000     0.000    93.000
   01/01/2000 00:30:00      0.000     0.000     0.000    93.000
   01/01/2000 00:35:00      0.000     0.000     0.000    93.000
   01/01/2000 00:40:00      0.000     0.000     0.000    93.000
   01/01/2000 00:45:00      0.000     0.000     0.000    93.000
   01/01/2000 00:50:00      0.000     0.000     0.000    93.000
   01/01/2000 00:55:00      0.000     0.000     0.000    93.000
   01/01/2000 01:00:00      0.000     0.000     0.000    93.000
   01/01/2000 01:05:00      0.000     0.000     0.001    93.001
   01/01/2000 01:10:00      0.000     0.000     0.001    93.001
   01/01/2000 01:15:00      0.000     0.000     0.001    93.001
   01/01/2000 01:20:00      0.000     0.000     0.002    93.002
   01/01/2000 01:25:00      0.000     0.000     0.002    93.002
   01/01/2000 01:30:00      0.000     0.000     0.002    93.002
   01/01/2000 01:35:00      0.000     0.000     0.003    93.003
   01/01/2000 01:40:00      0.000     0.000     0.003    93.003
   01/01/2000 01:45:00      0.000     0.000     0.004    93.004
   01/01/2000 01:50:00      0.000     0.000     0.005    93.005
   01/01/2000 01:55:00      0.000     0.000     0.005    93.005
   01/01/2000 02:00:00      0.000     0.000     0.006    93.006
   01/01/2000 02:05:00      0.000     0.000     0.006    93.006
   01/01/2000 02:10:00      0.000     0.000     0.007    93.007
   01/01/2000 02:15:00      0.000     0.000     0.007    93.007
   01/01/2000 02:20:00      0.000     0.000     0.008    93.008
   01/01/2000 02:25:00      0.000     0.000     0.008    93.008
   01/01/2000 02:30:00      0.000     0.000     0.008    93.008
   01/01/2000 02:35:00      0.000     0.000     0.009    93.009
   01/01/2000 02:40:00      0.000     0.000     0.009    93.009
   01/01/2000 02:45:00      0.000     0.000     0.009    93.009
   01/01/2000 02:50:00      0.001     0.000     0.010    93.010
   01/01/2000 02:55:00      0.001     0.000     0.010    93.010
   01/01/2000 03:00:00      0.001     0.000     0.010    93.010
   01/01/2000 03:05:00      0.001     0.000     0.010    93.010
   01/01/2000 03:10:00      0.001     0.000     0.010    93.010
   01/01/2000 03:15:00      0.001     0.000     0.011    93.011
   01/01/2000 03:20:00      0.001     0.000     0.011    93.011
   01/01/2000 03:25:00      0.001     0.000     0.011    93.011
   01/01/2000 03:30:00      0.001     0.000     0.011    93.011
   01/01/2000 03:35:00      0.001     0.000     0.011    93.011
   01/01/2000 03:40:00      0.001     0.000     0.012    93.012
   01/01/2000 03:45:00      0.001     0.000     0.012    93.012
   01/01/2000 03:50:00      0.001     0.000     0.012    93.012
   01/01/2000 03:55:00      0.001     0.000     0.012    93.012
   01/01/2000 04:00:00      0.001     0.000     0.012    93.012
   01/01/2000 04:05:00      0.001     0.000     0.012    93.012
   01/01/2000 04:10:00      0.001     0.000     0.012    93.012
   01/01/2000 04:15:00      0.001     0.000     0.012    93.012
   01/01/2000 04:20:00      0.001     0.000     0.012    93.012
   01/01/2000 04:25:00      0.001     0.000     0.012    93.012
   01/01/2000 04:30:00      0.001     0.000     0.013    93.013
   01/01/2000 04:35:00      0.001     0.000     0.013    93.013
   01/01/2000 04:40:00      0.001     0.000     0.013    93.013
   01/01/2000 04:45:00      0.001     0.000     0.013    93.013
   01/01/2000 04:50:00      0.001     0.000     0.013    93.013
   01/01/2000 04:55:00      0.001     0.000     0.013    93.013
   01/01/2000 05:00:00      0.001     0.000     0.013    93.013
   01/01/2000 05:05:00      0.001     0.000     0.013    93.013
   01/01/2000 05:10:00      0.001     0.000     0.013    93.013
   01/01/2000 05:15:00      0.001     0.000     0.013    93.013
   01/01/2000 05:20:00      0.001     0.000     0.013    93.013
   01/01/2000 05:25:00      0.001     0.000     0.013    93.013
   01/01/2000 05:30:00      0.001     0.000     0.013    93.013
   01/01/2000 05:35:00      0.001     0.000     0.013    93.013
   01/01/2000 05:40:00      0.001     0.000     0.014    93.014
   01/01/2000 05:45:00      0.001     0.000     0.014    93.014
   01/01/2000 05:50:00      0.001     0.000     0.014    93.014
   01/01/2000 05:55:00      0.001     0.000     0.014    93.014
   01/01/2000 06:00:00      0.001     0.000     0.014    93.014
   01/01/2000 06:05:00      0.001     0.000     0.014    93.014
   01/01/2000 06:10:00      0.001     0.000     0.014    93.014
   01/01/2000 06:15:00      0.001     0.000     0.014    93.014
   01/01/2000 06:20:00      0.001     0.000     0.014    93.014
   01/01/2000 06:25:00      0.001     0.000     0.014    93.014
   01/01/2000 06:30:00      0.001     0.000     0.014    93.014
   01/01/2000 06:35:00      0.001     0.000     0.014    93.014
   01/01/2000 06:40:00      0.001     0.000     0.014    93.014
   01/01/2000 06:45:00      0.001     0.000     0.014    93.014
   01/01/2000 06:50:00      0.001     0.000     0.015    93.015
   01/01/2000 06:55:00      0.001     0.000     0.015    93.015
   01/01/2000 07:00:00      0.001     0.000     0.015    93.015
   01/01/2000 07:05:00      0.001     0.000     0.015    93.015
   01/01/2000 07:10:00      0.001     0.000     0.015    93.015
   01/01/2000 07:15:00      0.001     0.000     0.015    93.015
   01/01/2000 07:20:00      0.001     0.000     0.015    93.015
   01/01/2000 07:25:00      0.001     0.000     0.015    93.015
   01/01/2000 07:30:00      0.001     0.000     0.015    93.015
   01/01/2000 07:35:00      0.001     0.000     0.015    93.015
   01/01/2000 07:40:00      0.001     0.000     0.015    93.015
   01/01/2000 07:45:00      0.001     0.000     0.015    93.015
   01/01/2000 07:50:00      0.001     0.000     0.015    93.015
   01/01/2000 07:55:00      0.001     0.000     0.015    93.015
   01/01/2000 08:00:00      0.001     0.000     0.015    93.015
   01/01/2000 08:05:00      0.001     0.000     0.016    93.016
   01/01/2000 08:10:00      0.001     0.000     0.016    93.016
   01/01/2000 08:15:00      0.001     0.000     0.016    93.016
   01/01/2000 08:20:00      0.001     0.000     0.016    93.016
   01/01/2000 08:25:00      0.002     0.000     0.016    93.016
   01/01/2000 08:30:00      0.002     0.000     0.016    93.016
   01/01/2000 08:35:00      0.002     0.000     0.016    93.016
   01/01/2000 08:40:00      0.002     0.000     0.016    93.016
   01/01/2000 08:45:00      0.002     0.000     0.016    93.016
   01/01/2000 08:50:00      0.002     0.000     0.016    93.016
   01/01/2000 08:55:00      0.002     0.000     0.016    93.016
   01/01/2000 09:00:00      0.002     0.000     0.016    93.016
   01/01/2000 09:05:00      0.002     0.000     0.016    93.016
   01/01/2000 09:10:00      0.002     0.000     0.016    93.016
   01/01/2000 09:15:00      0.002     0.000     0.017    93.017
   01/01/2000 09:20:00      0.002     0.000     0.017    93.017
   01/01/2000 09:25:00      0.002     0.000     0.017    93.017
   01/01/2000 09:30:00      0.002     0.000     0.017    93.017
   01/01/2000 09:35:00      0.002     0.000     0.017    93.017
   01/01/2000 09:40:00      0.002     0.000     0.017    93.017
   01/01/2000 09:45:00      0.002     0.000     0.018    93.018
   01/01/2000 09:50:00      0.002     0.000     0.018    93.018
   01/01/2000 09:55:00      0.002     0.000     0.018    93.018
   01/01/2000 10:00:00      0.002     0.000     0.018    93.018
   01/01/2000 10:05:00      0.002     0.000     0.019    93.019
   01/01/2000 10:10:00      0.002     0.000     0.019    93.019
   01/01/2000 10:15:00      0.002     0.000     0.019    93.019
   01/01/2000 10:20:00      0.002     0.000     0.019    93.019
   01/01/2000 10:25:00      0.002     0.000     0.019    93.019
   01/01/2000 10:30:00      0.002     0.000     0.019    93.019
   01/01/2000 10:35:00      0.002     0.000     0.019    93.019
   01/01/2000 10:40:00      0.002     0.000     0.020    93.020
   01/01/2000 10:45:00      0.002     0.000     0.020    93.020
   01/01/2000 10:50:00      0.002     0.000     0.020    93.020
   01/01/2000 10:55:00      0.003     0.000     0.020    93.020
   01/01/2000 11:00:00      0.003     0.000     0.020    93.020
   01/01/2000 11:05:00      0.003     0.000     0.021    93.021
   01/01/2000 11:10:00      0.003     0.000     0.021    93.021
   01/01/2000 11:15:00      0.003     0.000     0.021    93.021
   01/01/2000 11:20:00      0.003     0.000     0.022    93.022
   01/01/2000 11:25:00      0.003     0.000     0.022    93.022
   01/01/2000 11:30:00      0.003     0.000     0.023    93.023
   01/01/2000 11:35:00      0.004     0.000     0.026    93.026
   01/01/2000 11:40:00      0.005     0.000     0.027    93.027
   01/01/2000 11:45:00      0.005     0.000     0.028    93.028
   01/01/2000 11:50:00      0.006     0.000     0.029    93.029
   01/01/2000 11:55:00      0.006     0.000     0.030    93.030
   01/01/2000 12:00:00      0.006     0.000     0.030    93.030
   01/01/2000 12:05:00      0.007     0.000     0.031    93.031
   01/01/2000 12:10:00      0.007     0.000     0.032    93.032
   01/01/2000 12:15:00      0.008     0.000     0.034    93.034
   01/01/2000 12:20:00      0.008     0.000     0.035    93.035
   01/01/2000 12:25:00      0.009     0.000     0.036    93.036
   01/01/2000 12:30:00      0.010     0.000     0.037    93.037
   01/01/2000 12:35:00      0.013     0.000     0.043    93.043
   01/01/2000 12:40:00      0.021     0.000     0.054    93.054
   01/01/2000 12:45:00      0.036     0.000     0.069    93.069
   01/01/2000 12:50:00      0.062     0.000     0.089    93.089
   01/01/2000 12:55:00      0.093     0.000     0.108    93.108
   01/01/2000 13:00:00      0.099     0.000     0.111    93.111
   01/01/2000 13:05:00      0.069     0.000     0.094    93.094
   01/01/2000 13:10:00      0.052     0.000     0.082    93.082
   01/01/2000 13:15:00      0.040     0.000     0.073    93.073
   01/01/2000 13:20:00      0.032     0.000     0.066    93.066
   01/01/2000 13:25:00      0.027     0.000     0.060    93.060
   01/01/2000 13:30:00      0.022     0.000     0.055    93.055
   01/01/2000 13:35:00      0.019     0.000     0.052    93.052
   01/01/2000 13:40:00      0.017     0.000     0.048    93.048
   01/01/2000 13:45:00      0.015     0.000     0.046    93.046
   01/01/2000 13:50:00      0.013     0.000     0.043    93.043
   01/01/2000 13:55:00      0.012     0.000     0.042    93.042
   01/01/2000 14:00:00      0.011     0.000     0.040    93.040
   01/01/2000 14:05:00      0.010     0.000     0.038    93.038
   01/01/2000 14:10:00      0.009     0.000     0.037    93.037
   01/01/2000 14:15:00      0.009     0.000     0.036    93.036
   01/01/2000 14:20:00      0.008     0.000     0.035    93.035
   01/01/2000 14:25:00      0.008     0.000     0.034    93.034
   01/01/2000 14:30:00      0.007     0.000     0.033    93.033
   01/01/2000 14:35:00      0.007     0.000     0.032    93.032
   01/01/2000 14:40:00      0.007     0.000     0.031    93.031
   01/01/2000 14:45:00      0.006     0.000     0.031    93.031
   01/01/2000 14:50:00      0.006     0.000     0.030    93.030
   01/01/2000 14:55:00      0.006     0.000     0.029    93.029
   01/01/2000 15:00:00      0.005     0.000     0.029    93.029
   01/01/2000 15:05:00      0.005     0.000     0.028    93.028
   01/01/2000 15:10:00      0.005     0.000     0.028    93.028
   01/01/2000 15:15:00      0.005     0.000     0.027    93.027
   01/01/2000 15:20:00      0.005     0.000     0.027    93.027
   01/01/2000 15:25:00      0.005     0.000     0.027    93.027
   01/01/2000 15:30:00      0.004     0.000     0.026    93.026
   01/01/2000 15:35:00      0.004     0.000     0.026    93.026
   01/01/2000 15:40:00      0.004     0.000     0.026    93.026
   01/01/2000 15:45:00      0.004     0.000     0.025    93.025
   01/01/2000 15:50:00      0.004     0.000     0.025    93.025
   01/01/2000 15:55:00      0.004     0.000     0.025    93.025
   01/01/2000 16:00:00      0.004     0.000     0.025    93.025
   01/01/2000 16:05:00      0.004     0.000     0.024    93.024
   01/01/2000 16:10:00      0.004     0.000     0.024    93.024
   01/01/2000 16:15:00      0.004     0.000     0.024    93.024
   01/01/2000 16:20:00      0.004     0.000     0.024    93.024
   01/01/2000 16:25:00      0.004     0.000     0.023    93.023
   01/01/2000 16:30:00      0.003     0.000     0.023    93.023
   01/01/2000 16:35:00      0.003     0.000     0.023    93.023
   01/01/2000 16:40:00      0.003     0.000     0.023    93.023
   01/01/2000 16:45:00      0.003     0.000     0.023    93.023
   01/01/2000 16:50:00      0.003     0.000     0.022    93.022
   01/01/2000 16:55:00      0.003     0.000     0.022    93.022
   01/01/2000 17:00:00      0.003     0.000     0.022    93.022
   01/01/2000 17:05:00      0.003     0.000     0.022    93.022
   01/01/2000 17:10:00      0.003     0.000     0.021    93.021
   01/01/2000 17:15:00      0.003     0.000     0.021    93.021
   01/01/2000 17:20:00      0.003     0.000     0.021    93.021
   01/01/2000 17:25:00      0.003     0.000     0.021    93.021
   01/01/2000 17:30:00      0.003     0.000     0.021    93.021
   01/01/2000 17:35:00      0.003     0.000     0.021    93.021
   01/01/2000 17:40:00      0.003     0.000     0.021    93.021
   01/01/2000 17:45:00      0.003     0.000     0.020    93.020
   01/01/2000 17:50:00      0.003     0.000     0.020    93.020
   01/01/2000 17:55:00      0.003     0.000     0.020    93.020
   01/01/2000 18:00:00      0.003     0.000     0.020    93.020
   01/01/2000 18:05:00      0.002     0.000     0.020    93.020
   01/01/2000 18:10:00      0.002     0.000     0.020    93.020
   01/01/2000 18:15:00      0.002     0.000     0.020    93.020
   01/01/2000 18:20:00      0.002     0.000     0.020    93.020
   01/01/2000 18:25:00      0.002     0.000     0.020    93.020
   01/01/2000 18:30:00      0.002     0.000     0.019    93.019
   01/01/2000 18:35:00      0.002     0.000     0.019    93.019
   01/01/2000 18:40:00      0.002     0.000     0.019    93.019
   01/01/2000 18:45:00      0.002     0.000     0.019    93.019
   01/01/2000 18:50:00      0.002     0.000     0.019    93.019
   01/01/2000 18:55:00      0.002     0.000     0.019    93.019
   01/01/2000 19:00:00      0.002     0.000     0.019    93.019
   01/01/2000 19:05:00      0.002     0.000     0.019    93.019
   01/01/2000 19:10:00      0.002     0.000     0.019    93.019
   01/01/2000 19:15:00      0.002     0.000     0.019    93.019
   01/01/2000 19:20:00      0.002     0.000     0.018    93.018
   01/01/2000 19:25:00      0.002     0.000     0.018    93.018
   01/01/2000 19:30:00      0.002     0.000     0.018    93.018
   01/01/2000 19:35:00      0.002     0.000     0.018    93.018
   01/01/2000 19:40:00      0.002     0.000     0.018    93.018
   01/01/2000 19:45:00      0.002     0.000     0.018    93.018
   01/01/2000 19:50:00      0.002     0.000     0.018    93.018
   01/01/2000 19:55:00      0.002     0.000     0.018    93.018
   01/01/2000 20:00:00      0.002     0.000     0.018    93.018
   01/01/2000 20:05:00      0.002     0.000     0.018    93.018
   01/01/2000 20:10:00      0.002     0.000     0.018    93.018
   01/01/2000 20:15:00      0.002     0.000     0.017    93.017
   01/01/2000 20:20:00      0.002     0.000     0.017    93.017
   01/01/2000 20:25:00      0.002     0.000     0.017    93.017
   01/01/2000 20:30:00      0.002     0.000     0.017    93.017
   01/01/2000 20:35:00      0.002     0.000     0.017    93.017
   01/01/2000 20:40:00      0.002     0.000     0.017    93.017
   01/01/2000 20:45:00      0.002     0.000     0.017    93.017
   01/01/2000 20:50:00      0.002     0.000     0.017    93.017
   01/01/2000 20:55:00      0.002     0.000     0.017    93.017
   01/01/2000 21:00:00      0.002     0.000     0.017    93.017
   01/01/2000 21:05:00      0.002     0.000     0.016    93.016
   01/01/2000 21:10:00      0.002     0.000     0.016    93.016
   01/01/2000 21:15:00      0.002     0.000     0.016    93.016
   01/01/2000 21:20:00      0.002     0.000     0.016    93.016
   01/01/2000 21:25:00      0.002     0.000     0.016    93.016
   01/01/2000 21:30:00      0.002     0.000     0.016    93.016
   01/01/2000 21:35:00      0.002     0.000     0.016    93.016
   01/01/2000 21:40:00      0.002     0.000     0.016    93.016
   01/01/2000 21:45:00      0.002     0.000     0.016    93.016
   01/01/2000 21:50:00      0.001     0.000     0.016    93.016
   01/01/2000 21:55:00      0.001     0.000     0.016    93.016
   01/01/2000 22:00:00      0.001     0.000     0.016    93.016
   01/01/2000 22:05:00      0.001     0.000     0.016    93.016
   01/01/2000 22:10:00      0.001     0.000     0.016    93.016
   01/01/2000 22:15:00      0.001     0.000     0.016    93.016
   01/01/2000 22:20:00      0.001     0.000     0.016    93.016
   01/01/2000 22:25:00      0.001     0.000     0.015    93.015
   01/01/2000 22:30:00      0.001     0.000     0.015    93.015
   01/01/2000 22:35:00      0.001     0.000     0.015    93.015
   01/01/2000 22:40:00      0.001     0.000     0.015    93.015
   01/01/2000 22:45:00      0.001     0.000     0.015    93.015
   01/01/2000 22:50:00      0.001     0.000     0.015    93.015
   01/01/2000 22:55:00      0.001     0.000     0.015    93.015
   01/01/2000 23:00:00      0.001     0.000     0.015    93.015
   01/01/2000 23:05:00      0.001     0.000     0.015    93.015
   01/01/2000 23:10:00      0.001     0.000     0.015    93.015
   01/01/2000 23:15:00      0.001     0.000     0.015    93.015
   01/01/2000 23:20:00      0.001     0.000     0.015    93.015
   01/01/2000 23:25:00      0.001     0.000     0.015    93.015
   01/01/2000 23:30:00      0.001     0.000     0.015    93.015
   01/01/2000 23:35:00      0.001     0.000     0.015    93.015
   01/01/2000 23:40:00      0.001     0.000     0.015    93.015
   01/01/2000 23:45:00      0.001     0.000     0.015    93.015
   01/01/2000 23:50:00      0.001     0.000     0.015    93.015
   01/01/2000 23:55:00      0.001     0.000     0.015    93.015
   01/02/2000 00:00:00      0.001     0.000     0.015    93.015
  
  
  <<< Node J1 >>>
  ----------------------------------------------------------------
                           Inflow  Flooding     Depth      Head
  Date        Time            CMS       CMS    meters    meters
  ----------------------------------------------------------------
   01/01/2000 00:05:00      0.000     0.000     0.000    96.000
   01/01/2000 00:10:00      0.000     0.000     0.000    96.000
   01/01/2000 00:15:00      0.000     0.000     0.000    96.000
   01/01/2000 00:20:00      0.000     0.000     0.000    96.000
   01/01/2000 00:25:00      0.000     0.000     0.000    96.000
   01/01/2000 00:30:00      0.000     0.000     0.000    96.000
   01/01/2000 00:35:00      0.000     0.000     0.000    96.000
   01/01/2000 00:40:00      0.000     0.000     0.000    96.000
   01/01/2000 00:45:00      0.000     0.000     0.000    96.000
   01/01/2000 00:50:00      0.000     0.000     0.000    96.000
   01/01/2000 00:55:00      0.000     0.000     0.000    96.000
   01/01/2000 01:00:00      0.000     0.000     0.000    96.000
   01/01/2000 01:05:00      0.000     0.000     0.001    96.001
   01/01/2000 01:10:00      0.000     0.000     0.002    96.002
   01/01/2000 01:15:00      0.000     0.000     0.002    96.002
   01/01/2000 01:20:00      0.000     0.000     0.003    96.003
   01/01/2000 01:25:00      0.000     0.000     0.003    96.003
   01/01/2000 01:30:00      0.000     0.000     0.004    96.004
   01/01/2000 01:35:00      0.000     0.000     0.005    96.005
   01/01/2000 01:40:00      0.000     0.000     0.005    96.005
   01/01/2000 01:45:00      0.000     0.000     0.006    96.006
   01/01/2000 01:50:00      0.000     0.000     0.007    96.007
   01/01/2000 01:55:00      0.000     0.000     0.007    96.007
   01/01/2000 02:00:00      0.000     0.000     0.008    96.008
   01/01/2000 02:05:00      0.000     0.000     0.008    96.008
   01/01/2000 02:10:00      0.001     0.000     0.008    96.008
   01/01/2000 02:15:00      0.001     0.000     0.009    96.009
   01/01/2000 02:20:00      0.001     0.000     0.009    96.009
   01/01/2000 02:25:00      0.001     0.000     0.009    96.009
   01/01/2000 02:30:00      0.001     0.000     0.009    96.009
   01/01/2000 02:35:00      0.001     0.000     0.009    96.009
   01/01/2000 02:40:00      0.001     0.000     0.009    96.009
   01/01/2000 02:45:00      0.001     0.000     0.010    96.010
   01/01/2000 02:50:00      0.001     0.000     0.010    96.010
   01/01/2000 02:55:00      0.001     0.000     0.010    96.010
   01/01/2000 03:00:00      0.001     0.000     0.010    96.010
   01/01/2000 03:05:00      0.001     0.000     0.010    96.010
   01/01/2000 03:10:00      0.001     0.000     0.010    96.010
   01/01/2000 03:15:00      0.001     0.000     0.010    96.010
   01/01/2000 03:20:00      0.001     0.000     0.010    96.010
   01/01/2000 03:25:00      0.001     0.000     0.010    96.010
   01/01/2000 03:30:00      0.001     0.000     0.010    96.010
   01/01/2000 03:35:00      0.001     0.000     0.010    96.010
   01/01/2000 03:40:00      0.001     0.000     0.010    96.010
   01/01/2000 03:45:00      0.001     0.000     0.010    96.010
   01/01/2000 03:50:00      0.001     0.000     0.010    96.010
   01/01/2000 03:55:00      0.001     0.000     0.010    96.010
   01/01/2000 04:00:00      0.001     0.000     0.010    96.010
   01/01/2000 04:05:00      0.001     0.000     0.010    96.010
   01/01/2000 04:10:00      0.001     0.000     0.010    96.010
   01/01/2000 04:15:00      0.001     0.000     0.010    96.010
   01/01/2000 04:20:00      0.001     0.000     0.010    96.010
   01/01/2000 04:25:00      0.001     0.000     0.010    96.010
   01/01/2000 04:30:00      0.001     0.000     0.010    96.010
   01/01/2000 04:35:00      0.001     0.000     0.010    96.010
   01/01/2000 04:40:00      0.001     0.000     0.010    96.010
   01/01/2000 04:45:00      0.001     0.000     0.011    96.011
   01/01/2000 04:50:00      0.001     0.000     0.011    96.011
   01/01/2000 04:55:00      0.001     0.000     0.011    96.011
   01/01/2000 05:00:00      0.001     0.000     0.011    96.011
   01/01/2000 05:05:00      0.001     0.000     0.011    96.011
   01/01/2000 05:10:00      0.001     0.000     0.011    96.011
   01/01/2000 05:15:00      0.001     0.000     0.011    96.011
   01/01/2000 05:20:00      0.001     0.000     0.011    96.011
   01/01/2000 05:25:00      0.001     0.000     0.011    96.011
   01/01/2000 05:30:00      0.001     0.000     0.011    96.011
   01/01/2000 05:35:00      0.001     0.000     0.011    96.011
   01/01/2000 05:40:00      0.001     0.000     0.011    96.011
   01/01/2000 05:45:00      0.001     0.000     0.011    96.011
[...]
   01/01/2000 22:35:00      0.001     0.307     0.017     0.004
   01/01/2000 22:40:00      0.001     0.307     0.017     0.004
   01/01/2000 22:45:00      0.001     0.306     0.017     0.004
   01/01/2000 22:50:00      0.001     0.306     0.017     0.004
   01/01/2000 22:55:00      0.001     0.306     0.017     0.004
   01/01/2000 23:00:00      0.001     0.305     0.017     0.004
   01/01/2000 23:05:00      0.001     0.305     0.017     0.004
   01/01/2000 23:10:00      0.001     0.304     0.017     0.004
   01/01/2000 23:15:00      0.001     0.304     0.017     0.004
   01/01/2000 23:20:00      0.001     0.304     0.017     0.004
   01/01/2000 23:25:00      0.001     0.303     0.017     0.004
   01/01/2000 23:30:00      0.001     0.303     0.017     0.004
   01/01/2000 23:35:00      0.001     0.303     0.017     0.004
   01/01/2000 23:40:00      0.001     0.302     0.017     0.004
   01/01/2000 23:45:00      0.001     0.302     0.017     0.004
   01/01/2000 23:50:00      0.001     0.301     0.017     0.004
   01/01/2000 23:55:00      0.001     0.301     0.017     0.004
   01/02/2000 00:00:00      0.001     0.301     0.017     0.004
  
  
  <<< Link C1 >>>
  ----------------------------------------------------------------
                             Flow  Velocity     Depth  Capacity/
  Date        Time            CMS     m/sec    meters   Setting 
  ----------------------------------------------------------------
   01/01/2000 00:05:00      0.000     0.000     0.000     0.000
   01/01/2000 00:10:00      0.000     0.000     0.000     0.000
   01/01/2000 00:15:00      0.000     0.000     0.000     0.000
   01/01/2000 00:20:00      0.000     0.000     0.000     0.000
   01/01/2000 00:25:00      0.000     0.000     0.000     0.000
   01/01/2000 00:30:00      0.000     0.000     0.000     0.000
   01/01/2000 00:35:00      0.000     0.000     0.000     0.000
   01/01/2000 00:40:00      0.000     0.000     0.000     0.000
   01/01/2000 00:45:00      0.000     0.000     0.000     0.000
   01/01/2000 00:50:00      0.000     0.000     0.000     0.000
   01/01/2000 00:55:00      0.000     0.000     0.000     0.000
   01/01/2000 01:00:00      0.000     0.000     0.000     0.000
   01/01/2000 01:05:00      0.000     0.000     0.001     0.000
   01/01/2000 01:10:00      0.000     0.000     0.001     0.000
   01/01/2000 01:15:00      0.000     0.000     0.001     0.000
   01/01/2000 01:20:00      0.000     0.000     0.002     0.000
   01/01/2000 01:25:00      0.000     0.000     0.002     0.000
   01/01/2000 01:30:00      0.000     0.000     0.003     0.000
   01/01/2000 01:35:00      0.000     0.072     0.003     0.001
   01/01/2000 01:40:00      0.000     0.113     0.004     0.001
   01/01/2000 01:45:00      0.000     0.167     0.005     0.001
   01/01/2000 01:50:00      0.000     0.224     0.006     0.001
   01/01/2000 01:55:00      0.000     0.278     0.007     0.001
   01/01/2000 02:00:00      0.000     0.324     0.007     0.001
   01/01/2000 02:05:00      0.000     0.362     0.008     0.001
   01/01/2000 02:10:00      0.000     0.393     0.008     0.001
   01/01/2000 02:15:00      0.000     0.417     0.008     0.002
   01/01/2000 02:20:00      0.001     0.436     0.009     0.002
   01/01/2000 02:25:00      0.001     0.451     0.009     0.002
   01/01/2000 02:30:00      0.001     0.464     0.009     0.002
   01/01/2000 02:35:00      0.001     0.474     0.009     0.002
   01/01/2000 02:40:00      0.001     0.482     0.009     0.002
   01/01/2000 02:45:00      0.001     0.488     0.009     0.002
   01/01/2000 02:50:00      0.001     0.494     0.010     0.002
   01/01/2000 02:55:00      0.001     0.498     0.010     0.002
   01/01/2000 03:00:00      0.001     0.503     0.010     0.002
   01/01/2000 03:05:00      0.001     0.506     0.010     0.002
   01/01/2000 03:10:00      0.001     0.509     0.010     0.002
   01/01/2000 03:15:00      0.001     0.511     0.010     0.002
   01/01/2000 03:20:00      0.001     0.514     0.010     0.002
   01/01/2000 03:25:00      0.001     0.516     0.010     0.002
   01/01/2000 03:30:00      0.001     0.518     0.010     0.002
   01/01/2000 03:35:00      0.001     0.520     0.010     0.002
   01/01/2000 03:40:00      0.001     0.522     0.010     0.002
   01/01/2000 03:45:00      0.001     0.524     0.010     0.002
   01/01/2000 03:50:00      0.001     0.525     0.010     0.002
   01/01/2000 03:55:00      0.001     0.527     0.010     0.002
   01/01/2000 04:00:00      0.001     0.529     0.010     0.002
   01/01/2000 04:05:00      0.001     0.530     0.010     0.002
   01/01/2000 04:10:00      0.001     0.532     0.010     0.002
   01/01/2000 04:15:00      0.001     0.533     0.010     0.002
   01/01/2000 04:20:00      0.001     0.535     0.010     0.002
   01/01/2000 04:25:00      0.001     0.536     0.010     0.002
   01/01/2000 04:30:00      0.001     0.537     0.010     0.002
   01/01/2000 04:35:00      0.001     0.539     0.010     0.002
   01/01/2000 04:40:00      0.001     0.540     0.010     0.002
   01/01/2000 04:45:00      0.001     0.542     0.010     0.002
   01/01/2000 04:50:00      0.001     0.543     0.011     0.002
   01/01/2000 04:55:00      0.001     0.545     0.011     0.002
   01/01/2000 05:00:00      0.001     0.546     0.011     0.002
   01/01/2000 05:05:00      0.001     0.547     0.011     0.002
   01/01/2000 05:10:00      0.001     0.549     0.011     0.002
   01/01/2000 05:15:00      0.001     0.550     0.011     0.002
   01/01/2000 05:20:00      0.001     0.552     0.011     0.002
   01/01/2000 05:25:00      0.001     0.554     0.011     0.002
   01/01/2000 05:30:00      0.001     0.556     0.011     0.002
   01/01/2000 05:35:00      0.001     0.558     0.011     0.002
   01/01/2000 05:40:00      0.001     0.560     0.011     0.002
   01/01/2000 05:45:00      0.001     0.563     0.011     0.002
   01/01/2000 05:50:00      0.001     0.565     0.011     0.002
   01/01/2000 05:55:00      0.001     0.568     0.011     0.002
   01/01/2000 06:00:00      0.001     0.571     0.011     0.002
   01/01/2000 06:05:00      0.001     0.573     0.011     0.002
   01/01/2000 06:10:00      0.001     0.576     0.011     0.002
   01/01/2000 06:15:00      0.001     0.578     0.011     0.002
   01/01/2000 06:20:00      0.001     0.581     0.011     0.002
   01/01/2000 06:25:00      0.001     0.583     0.011     0.002
   01/01/2000 06:30:00      0.001     0.586     0.011     0.002
   01/01/2000 06:35:00      0.001     0.588     0.012     0.002
   01/01/2000 06:40:00      0.001     0.591     0.012     0.002
   01/01/2000 06:45:00      0.001     0.593     0.012     0.002
   01/01/2000 06:50:00      0.001     0.596     0.012     0.002
   01/01/2000 06:55:00      0.001     0.598     0.012     0.002
   01/01/2000 07:00:00      0.001     0.600     0.012     0.002
   01/01/2000 07:05:00      0.001     0.603     0.012     0.002
   01/01/2000 07:10:00      0.001     0.605     0.012     0.002
   01/01/2000 07:15:00      0.001     0.607     0.012     0.002
   01/01/2000 07:20:00      0.001     0.610     0.012     0.002
   01/01/2000 07:25:00      0.001     0.612     0.012     0.002
   01/01/2000 07:30:00      0.001     0.614     0.012     0.002
   01/01/2000 07:35:00      0.001     0.617     0.012     0.002
   01/01/2000 07:40:00      0.001     0.619     0.012     0.002
   01/01/2000 07:45:00      0.001     0.621     0.012     0.002
   01/01/2000 07:50:00      0.001     0.623     0.012     0.002
   01/01/2000 07:55:00      0.001     0.626     0.012     0.002
   01/01/2000 08:00:00      0.001     0.628     0.012     0.002
   01/01/2000 08:05:00      0.001     0.630     0.012     0.002
   01/01/2000 08:10:00      0.001     0.632     0.013     0.002
   01/01/2000 08:15:00      0.001     0.634     0.013     0.003
   01/01/2000 08:20:00      0.001     0.637     0.013     0.003
   01/01/2000 08:25:00      0.001     0.639     0.013     0.003
   01/01/2000 08:30:00      0.001     0.641     0.013     0.003
   01/01/2000 08:35:00      0.001     0.643     0.013     0.003
   01/01/2000 08:40:00      0.001     0.645     0.013     0.003
   01/01/2000 08:45:00      0.001     0.647     0.013     0.003
   01/01/2000 08:50:00      0.001     0.649     0.013     0.003
   01/01/2000 08:55:00      0.001     0.651     0.013     0.003
   01/01/2000 09:00:00      0.001     0.653     0.013     0.003
   01/01/2000 09:05:00      0.001     0.654     0.013     0.003
   01/01/2000 09:10:00      0.001     0.656     0.013     0.003
   01/01/2000 09:15:00      0.001     0.659     0.013     0.003
   01/01/2000 09:20:00      0.001     0.663     0.013     0.003
   01/01/2000 09:25:00      0.001     0.669     0.014     0.003
   01/01/2000 09:30:00      0.002     0.677     0.014     0.003
   01/01/2000 09:35:00      0.002     0.684     0.014     0.003
   01/01/2000 09:40:00      0.002     0.692     0.014     0.003
   01/01/2000 09:45:00      0.002     0.701     0.014     0.003
   01/01/2000 09:50:00      0.002     0.709     0.015     0.003
   01/01/2000 09:55:00      0.002     0.717     0.015     0.003
   01/01/2000 10:00:00      0.002     0.726     0.015     0.003
   01/01/2000 10:05:00      0.002     0.735     0.015     0.003
   01/01/2000 10:10:00      0.002     0.744     0.015     0.003
   01/01/2000 10:15:00      0.002     0.750     0.015     0.003
   01/01/2000 10:20:00      0.002     0.755     0.016     0.003
   01/01/2000 10:25:00      0.002     0.758     0.016     0.003
   01/01/2000 10:30:00      0.002     0.760     0.016     0.003
   01/01/2000 10:35:00      0.002     0.760     0.016     0.003
   01/01/2000 10:40:00      0.002     0.760     0.016     0.003
   01/01/2000 10:45:00      0.002     0.763     0.016     0.003
   01/01/2000 10:50:00      0.002     0.769     0.016     0.003
   01/01/2000 10:55:00      0.002     0.776     0.016     0.004
   01/01/2000 11:00:00      0.002     0.785     0.017     0.004
   01/01/2000 11:05:00      0.002     0.793     0.017     0.004
   01/01/2000 11:10:00      0.002     0.803     0.017     0.004
   01/01/2000 11:15:00      0.003     0.814     0.018     0.004
   01/01/2000 11:20:00      0.003     0.826     0.018     0.004
   01/01/2000 11:25:00      0.003     0.840     0.018     0.004
   01/01/2000 11:30:00      0.003     0.853     0.019     0.004
   01/01/2000 11:35:00      0.003     0.865     0.019     0.004
   01/01/2000 11:40:00      0.003     0.878     0.020     0.005
   01/01/2000 11:45:00      0.003     0.893     0.020     0.005
   01/01/2000 11:50:00      0.003     0.907     0.021     0.005
   01/01/2000 11:55:00      0.004     0.921     0.021     0.005
   01/01/2000 12:00:00      0.004     0.936     0.022     0.005
   01/01/2000 12:05:00      0.004     0.948     0.022     0.006
   01/01/2000 12:10:00      0.004     0.961     0.023     0.006
   01/01/2000 12:15:00      0.005     0.981     0.024     0.006
   01/01/2000 12:20:00      0.005     1.006     0.025     0.007
   01/01/2000 12:25:00      0.006     1.037     0.026     0.007
   01/01/2000 12:30:00      0.006     1.071     0.027     0.008
   01/01/2000 12:35:00      0.009     1.068     0.033     0.010
   01/01/2000 12:40:00      0.015     1.230     0.045     0.016
   01/01/2000 12:45:00      0.031     1.597     0.060     0.025
   01/01/2000 12:50:00      0.055     1.924     0.079     0.037
   01/01/2000 12:55:00      0.102     2.533     0.099     0.051
   01/01/2000 13:00:00      0.102     2.616     0.097     0.050
   01/01/2000 13:05:00      0.071     2.489     0.078     0.036
   01/01/2000 13:10:00      0.044     2.087     0.063     0.027
   01/01/2000 13:15:00      0.032     1.862     0.055     0.022
   01/01/2000 13:20:00      0.025     1.715     0.049     0.019
   01/01/2000 13:25:00      0.021     1.617     0.045     0.016
   01/01/2000 13:30:00      0.017     1.547     0.041     0.014
   01/01/2000 13:35:00      0.014     1.467     0.038     0.012
   01/01/2000 13:40:00      0.012     1.389     0.036     0.011
   01/01/2000 13:45:00      0.011     1.327     0.033     0.010
   01/01/2000 13:50:00      0.010     1.278     0.032     0.010
   01/01/2000 13:55:00      0.009     1.236     0.030     0.009
   01/01/2000 14:00:00      0.008     1.200     0.029     0.008
   01/01/2000 14:05:00      0.007     1.163     0.028     0.008
   01/01/2000 14:10:00      0.006     1.130     0.027     0.007
   01/01/2000 14:15:00      0.006     1.102     0.026     0.007
   01/01/2000 14:20:00      0.006     1.076     0.025     0.007
   01/01/2000 14:25:00      0.005     1.054     0.024     0.006
   01/01/2000 14:30:00      0.005     1.033     0.023     0.006
   01/01/2000 14:35:00      0.004     1.013     0.022     0.006
   01/01/2000 14:40:00      0.004     0.993     0.022     0.005
   01/01/2000 14:45:00      0.004     0.975     0.021     0.005
   01/01/2000 14:50:00      0.004     0.959     0.020     0.005
   01/01/2000 14:55:00      0.003     0.942     0.020     0.005
   01/01/2000 15:00:00      0.003     0.923     0.019     0.004
   01/01/2000 15:05:00      0.003     0.903     0.019     0.004
   01/01/2000 15:10:00      0.003     0.883     0.018     0.004
   01/01/2000 15:15:00      0.003     0.865     0.018     0.004
   01/01/2000 15:20:00      0.003     0.850     0.017     0.004
   01/01/2000 15:25:00      0.002     0.836     0.017     0.004
   01/01/2000 15:30:00      0.002     0.824     0.017     0.004
   01/01/2000 15:35:00      0.002     0.813     0.017     0.004
   01/01/2000 15:40:00      0.002     0.803     0.016     0.004
   01/01/2000 15:45:00      0.002     0.794     0.016     0.003
   01/01/2000 15:50:00      0.002     0.785     0.016     0.003
   01/01/2000 15:55:00      0.002     0.778     0.016     0.003
   01/01/2000 16:00:00      0.002     0.773     0.016     0.003
   01/01/2000 16:05:00      0.002     0.767     0.016     0.003
   01/01/2000 16:10:00      0.002     0.762     0.015     0.003
   01/01/2000 16:15:00      0.002     0.757     0.015     0.003
   01/01/2000 16:20:00      0.002     0.752     0.015     0.003
   01/01/2000 16:25:00      0.002     0.747     0.015     0.003
   01/01/2000 16:30:00      0.002     0.741     0.015     0.003
   01/01/2000 16:35:00      0.002     0.736     0.015     0.003
   01/01/2000 16:40:00      0.002     0.731     0.015     0.003
   01/01/2000 16:45:00      0.002     0.725     0.014     0.003
   01/01/2000 16:50:00      0.002     0.720     0.014     0.003
   01/01/2000 16:55:00      0.002     0.714     0.014     0.003
   01/01/2000 17:00:00      0.002     0.708     0.014     0.003
   01/01/2000 17:05:00      0.002     0.702     0.014     0.003
   01/01/2000 17:10:00      0.002     0.696     0.014     0.003
   01/01/2000 17:15:00      0.002     0.690     0.014     0.003
   01/01/2000 17:20:00      0.001     0.685     0.014     0.003
   01/01/2000 17:25:00      0.001     0.681     0.013     0.003
   01/01/2000 17:30:00      0.001     0.678     0.013     0.003
   01/01/2000 17:35:00      0.001     0.674     0.013     0.003
   01/01/2000 17:40:00      0.001     0.671     0.013     0.003
   01/01/2000 17:45:00      0.001     0.669     0.013     0.003
   01/01/2000 17:50:00      0.001     0.666     0.013     0.003
   01/01/2000 17:55:00      0.001     0.663     0.013     0.003
   01/01/2000 18:00:00      0.001     0.661     0.013     0.003
   01/01/2000 18:05:00      0.001     0.658     0.013     0.003
   01/01/2000 18:10:00      0.001     0.656     0.013     0.003
   01/01/2000 18:15:00      0.001     0.653     0.013     0.003
   01/01/2000 18:20:00      0.001     0.650     0.013     0.003
   01/01/2000 18:25:00      0.001     0.648     0.013     0.003
   01/01/2000 18:30:00      0.001     0.645     0.013     0.003
   01/01/2000 18:35:00      0.001     0.643     0.013     0.003
   01/01/2000 18:40:00      0.001     0.640     0.013     0.002
   01/01/2000 18:45:00      0.001     0.638     0.012     0.002
   01/01/2000 18:50:00      0.001     0.635     0.012     0.002
   01/01/2000 18:55:00      0.001     0.632     0.012     0.002
   01/01/2000 19:00:00      0.001     0.630     0.012     0.002
   01/01/2000 19:05:00      0.001     0.627     0.012     0.002
   01/01/2000 19:10:00      0.001     0.625     0.012     0.002
   01/01/2000 19:15:00      0.001     0.622     0.012     0.002
   01/01/2000 19:20:00      0.001     0.619     0.012     0.002
   01/01/2000 19:25:00      0.001     0.616     0.012     0.002
   01/01/2000 19:30:00      0.001     0.614     0.012     0.002
   01/01/2000 19:35:00      0.001     0.611     0.012     0.002
   01/01/2000 19:40:00      0.001     0.608     0.012     0.002
   01/01/2000 19:45:00      0.001     0.605     0.012     0.002
   01/01/2000 19:50:00      0.001     0.602     0.012     0.002
   01/01/2000 19:55:00      0.001     0.599     0.012     0.002
   01/01/2000 20:00:00      0.001     0.597     0.012     0.002
   01/01/2000 20:05:00      0.001     0.594     0.011     0.002
   01/01/2000 20:10:00      0.001     0.591     0.011     0.002
   01/01/2000 20:15:00      0.001     0.588     0.011     0.002
   01/01/2000 20:20:00      0.001     0.585     0.011     0.002
   01/01/2000 20:25:00      0.001     0.583     0.011     0.002
   01/01/2000 20:30:00      0.001     0.579     0.011     0.002
   01/01/2000 20:35:00      0.001     0.576     0.011     0.002
   01/01/2000 20:40:00      0.001     0.573     0.011     0.002
   01/01/2000 20:45:00      0.001     0.570     0.011     0.002
   01/01/2000 20:50:00      0.001     0.567     0.011     0.002
   01/01/2000 20:55:00      0.001     0.564     0.011     0.002
   01/01/2000 21:00:00      0.001     0.561     0.011     0.002
   01/01/2000 21:05:00      0.001     0.557     0.011     0.002
   01/01/2000 21:10:00      0.001     0.554     0.011     0.002
   01/01/2000 21:15:00      0.001     0.550     0.011     0.002
   01/01/2000 21:20:00      0.001     0.548     0.010     0.002
   01/01/2000 21:25:00      0.001     0.546     0.010     0.002
   01/01/2000 21:30:00      0.001     0.543     0.010     0.002
   01/01/2000 21:35:00      0.001     0.542     0.010     0.002
   01/01/2000 21:40:00      0.001     0.540     0.010     0.002
   01/01/2000 21:45:00      0.001     0.539     0.010     0.002
   01/01/2000 21:50:00      0.001     0.538     0.010     0.002
   01/01/2000 21:55:00      0.001     0.537     0.010     0.002
   01/01/2000 22:00:00      0.001     0.536     0.010     0.002
   01/01/2000 22:05:00      0.001     0.535     0.010     0.002
   01/01/2000 22:10:00      0.001     0.534     0.010     0.002
   01/01/2000 22:15:00      0.001     0.533     0.010     0.002
   01/01/2000 22:20:00      0.001     0.532     0.010     0.002
   01/01/2000 22:25:00      0.001     0.532     0.010     0.002
   01/01/2000 22:30:00      0.001     0.531     0.010     0.002
   01/01/2000 22:35:00      0.001     0.530     0.010     0.002
   01/01/2000 22:40:00      0.001     0.529     0.010     0.002
   01/01/2000 22:45:00      0.001     0.529     0.010     0.002
   01/01/2000 22:50:00      0.001     0.528     0.010     0.002
   01/01/2000 22:55:00      0.001     0.527     0.010     0.002
   01/01/2000 23:00:00      0.001     0.526     0.010     0.002
   01/01/2000 23:05:00      0.001     0.526     0.010     0.002
   01/01/2000 23:10:00      0.001     0.525     0.010     0.002
   01/01/2000 23:15:00      0.001     0.524     0.010     0.002
   01/01/2000 23:20:00      0.001     0.523     0.010     0.002
   01/01/2000 23:25:00      0.001     0.523     0.010     0.002
   01/01/2000 23:30:00      0.001     0.522     0.010     0.002
   01/01/2000 23:35:00      0.001     0.521     0.010     0.002
   01/01/2000 23:40:00      0.001     0.520     0.010     0.002
   01/01/2000 23:45:00      0.001     0.520     0.010     0.002
   01/01/2000 23:50:00      0.001     0.519     0.010     0.002
   01/01/2000 23:55:00      0.001     0.518     0.010     0.002
   01/02/2000 00:00:00      0.001     0.518     0.010     0.002
  

  Analysis begun on:  Mon Dec  2 17:16:46 2019
  Analysis ended on:  Mon Dec  2 17:16:46 2019
  Total elapsed time: < 1 sec