
  EPA STORM WATER MANAGEMENT MODEL - VERSION 5.1 (Build 5.1.013)
  --------------------------------------------------------------

  Scenario Run: BASE 
  
  
  *********************
  Rainfall File Summary
  *********************
  Station    First        Last         Recording   Periods    Periods    Periods
  ID         Date         Date         Frequency  w/Precip    Missing    Malfunc.
  -------------------------------------------------------------------------------
  rg_1       01/01/2000   01/02/2000      60 min       241          0          0

  
  *********************************************************
  NOTE: The summary statistics displayed in this report are
  based on results found at every computational time step,  
  not just on results from each reporting time step.
  *********************************************************
  
  ****************
  Analysis Options
  ****************
  Flow Units ............... CMS
  Process Models:
    Rainfall/Runoff ........ YES
    RDII ................... NO
    Snowmelt ............... NO
    Groundwater ............ NO
    Flow Routing ........... YES
    Ponding Allowed ........ NO
    Water Quality .......... NO
  Infiltration Method ...... MODIFIED_GREEN_AMPT
  Flow Routing Method ...... KINWAVE
  Starting Date ............ 01/01/2000 00:00:00
  Ending Date .............. 01/02/2000 00:00:00
  Antecedent Dry Days ...... 5.0
  Report Time Step ......... 00:05:00
  Wet Time Step ............ 00:15:00
  Dry Time Step ............ 01:00:00
  Routing Time Step ........ 60.00 sec
  
  
  **************************        Volume         Depth
  Runoff Quantity Continuity     hectare-m            mm
  **************************     ---------       -------
  Total Precipitation ......         0.119         9.888
  Evaporation Loss .........         0.000         0.000
  Infiltration Loss ........         0.043         3.607
  Surface Runoff ...........         0.073         6.054
  Final Storage ............         0.003         0.249
  Continuity Error (%) .....        -0.232
  
  
  **************************        Volume        Volume
  Flow Routing Continuity        hectare-m      10^6 ltr
  **************************     ---------     ---------
  Dry Weather Inflow .......         0.000         0.000
  Wet Weather Inflow .......         0.073         0.726
  Groundwater Inflow .......         0.000         0.000
  RDII Inflow ..............         0.000         0.000
  External Inflow ..........         0.000         0.000
  External Outflow .........         0.072         0.720
  Flooding Loss ............         0.000         0.000
  Evaporation Loss .........         0.000         0.000
  Exfiltration Loss ........         0.000         0.000
  Initial Stored Volume ....         0.000         0.000
  Final Stored Volume ......         0.000         0.004
  Continuity Error (%) .....         0.300
  
  
  ********************************
  Highest Flow Instability Indexes
  ********************************
  All links are stable.
  
  
  *************************
  Routing Time Step Summary
  *************************
  Minimum Time Step           :    60.00 sec
  Average Time Step           :    60.00 sec
  Maximum Time Step           :    60.00 sec
  Percent in Steady State     :     0.00
  Average Iterations per Step :     1.04
  Percent Not Converging      :     0.00
  
  
  ***************************
  Subcatchment Runoff Summary
  ***************************
  
  ------------------------------------------------------------------------------------------------------------------------------
                            Total      Total      Total      Total     Imperv       Perv      Total       Total     Peak  Runoff
                           Precip      Runon       Evap      Infil     Runoff     Runoff     Runoff      Runoff   Runoff   Coeff
  Subcatchment                 mm         mm         mm         mm         mm         mm         mm    10^6 ltr      CMS
  ------------------------------------------------------------------------------------------------------------------------------
  S1                         9.89       0.00       0.00       3.51       4.89       1.44       6.33        0.25     0.07   0.640
  S2                         9.89       0.00       0.00       6.68       0.99       2.23       3.21        0.13     0.03   0.325
  S3                         9.89       0.00       0.00       0.63       8.76       0.36       8.62        0.34     0.10   0.872
  

  ***********************
  LID Performance Summary
  ***********************

  --------------------------------------------------------------------------------------------------------------------
                                         Total      Evap     Infil   Surface    Drain    Initial     Final  Continuity
                                        Inflow      Loss      Loss   Outflow   Outflow   Storage   Storage       Error
  Subcatchment      LID Control             mm        mm        mm        mm        mm        mm        mm           %
  --------------------------------------------------------------------------------------------------------------------
  S3                rb                 5263.71      0.00      0.00   4263.71      0.00      0.00   1000.00        0.00
  
  ******************
  Node Depth Summary
  ******************
  
  ---------------------------------------------------------------------------------
                                 Average  Maximum  Maximum  Time of Max    Reported
                                   Depth    Depth      HGL   Occurrence   Max Depth
  Node                 Type       Meters   Meters   Meters  days hr:min      Meters
  ---------------------------------------------------------------------------------
  J3                   JUNCTION     0.02     0.11    93.11     0  13:00        0.11
  J1                   JUNCTION     0.02     0.09    96.09     0  13:00        0.09
  J4                   JUNCTION     0.03     0.15    88.15     0  13:02        0.15
  J2                   JUNCTION     0.02     0.15    90.15     0  13:00        0.15
  OUT1                 OUTFALL      0.03     0.15    85.15     0  13:04        0.15
  
  
  *******************
  Node Inflow Summary
  *******************
  
  -------------------------------------------------------------------------------------------------
                                  Maximum  Maximum                  Lateral       Total        Flow
                                  Lateral    Total  Time of Max      Inflow      Inflow     Balance
                                   Inflow   Inflow   Occurrence      Volume      Volume       Error
  Node                 Type           CMS      CMS  days hr:min    10^6 ltr    10^6 ltr     Percent
  -------------------------------------------------------------------------------------------------
  J3                   JUNCTION     0.102    0.102     0  13:00       0.344       0.344       0.000
  J1                   JUNCTION     0.073    0.073     0  13:00       0.253       0.253       0.000
  J4                   JUNCTION     0.000    0.198     0  13:02           0       0.721       0.000
  J2                   JUNCTION     0.030    0.102     0  13:00       0.128       0.381       0.000
  OUT1                 OUTFALL      0.000    0.195     0  13:04           0        0.72       0.000
  
  
  *********************
  Node Flooding Summary
  *********************
  
  No nodes were flooded.
  
  
  ***********************
  Outfall Loading Summary
  ***********************
  
  -----------------------------------------------------------
                         Flow       Avg       Max       Total
                         Freq      Flow      Flow      Volume
  Outfall Node           Pcnt       CMS       CMS    10^6 ltr
  -----------------------------------------------------------
  OUT1                  90.56     0.009     0.195       0.720
  -----------------------------------------------------------
  System                90.56     0.009     0.195       0.720
  
  
  ********************
  Link Flow Summary
  ********************
  
  -----------------------------------------------------------------------------
                                 Maximum  Time of Max   Maximum    Max/    Max/
                                  |Flow|   Occurrence   |Veloc|    Full    Full
  Link                 Type          CMS  days hr:min     m/sec    Flow   Depth
  -----------------------------------------------------------------------------
  C3                   CONDUIT     0.102     0  13:01      1.92    0.01    0.07
  C4                   CONDUIT     0.195     0  13:04      1.88    0.01    0.07
  C2                   CONDUIT     0.099     0  13:03      1.50    0.05    0.14
  C1                   CONDUIT     0.073     0  13:01      1.99    0.02    0.09
  
  
  *************************
  Conduit Surcharge Summary
  *************************
  
  No conduits were surcharged.
  
  
  ********************
  Subcatchment Results
  ********************
  
  <<< Subcatchment S1 >>>
  ---------------------------------------------------
  Date        Time        Precip.    Losses    Runoff
                            mm/hr     mm/hr       CMS
  ---------------------------------------------------
   01/01/2000 00:05:00      0.000     0.000    0.0000
   01/01/2000 00:10:00      0.000     0.000    0.0000
   01/01/2000 00:15:00      0.000     0.000    0.0000
   01/01/2000 00:20:00      0.000     0.000    0.0000
   01/01/2000 00:25:00      0.000     0.000    0.0000
   01/01/2000 00:30:00      0.000     0.000    0.0000
   01/01/2000 00:35:00      0.000     0.000    0.0000
   01/01/2000 00:40:00      0.000     0.000    0.0000
   01/01/2000 00:45:00      0.000     0.000    0.0000
   01/01/2000 00:50:00      0.000     0.000    0.0000
   01/01/2000 00:55:00      0.000     0.000    0.0000
   01/01/2000 01:00:00      0.101     0.000    0.0000
   01/01/2000 01:05:00      0.101     0.051    0.0000
   01/01/2000 01:10:00      0.101     0.051    0.0000
   01/01/2000 01:15:00      0.103     0.052    0.0000
   01/01/2000 01:20:00      0.103     0.052    0.0000
   01/01/2000 01:25:00      0.105     0.052    0.0000
   01/01/2000 01:30:00      0.105     0.052    0.0000
   01/01/2000 01:35:00      0.105     0.052    0.0000
   01/01/2000 01:40:00      0.107     0.054    0.0000
   01/01/2000 01:45:00      0.107     0.054    0.0000
   01/01/2000 01:50:00      0.109     0.054    0.0000
   01/01/2000 01:55:00      0.109     0.054    0.0000
   01/01/2000 02:00:00      0.111     0.056    0.0000
   01/01/2000 02:05:00      0.111     0.056    0.0000
   01/01/2000 02:10:00      0.111     0.056    0.0003
   01/01/2000 02:15:00      0.113     0.057    0.0003
   01/01/2000 02:20:00      0.113     0.057    0.0004
   01/01/2000 02:25:00      0.115     0.058    0.0004
   01/01/2000 02:30:00      0.115     0.058    0.0004
   01/01/2000 02:35:00      0.115     0.058    0.0005
   01/01/2000 02:40:00      0.117     0.058    0.0005
   01/01/2000 02:45:00      0.117     0.058    0.0005
   01/01/2000 02:50:00      0.119     0.060    0.0005
   01/01/2000 02:55:00      0.119     0.060    0.0005
   01/01/2000 03:00:00      0.121     0.060    0.0006
   01/01/2000 03:05:00      0.121     0.061    0.0006
   01/01/2000 03:10:00      0.121     0.061    0.0006
   01/01/2000 03:15:00      0.123     0.062    0.0006
   01/01/2000 03:20:00      0.123     0.062    0.0006
   01/01/2000 03:25:00      0.125     0.063    0.0006
   01/01/2000 03:30:00      0.125     0.063    0.0006
   01/01/2000 03:35:00      0.125     0.063    0.0006
   01/01/2000 03:40:00      0.127     0.064    0.0007
   01/01/2000 03:45:00      0.127     0.064    0.0007
   01/01/2000 03:50:00      0.129     0.064    0.0007
   01/01/2000 03:55:00      0.129     0.064    0.0007
   01/01/2000 04:00:00      0.131     0.064    0.0007
   01/01/2000 04:05:00      0.131     0.065    0.0007
   01/01/2000 04:10:00      0.131     0.065    0.0007
   01/01/2000 04:15:00      0.133     0.067    0.0007
   01/01/2000 04:20:00      0.133     0.067    0.0007
   01/01/2000 04:25:00      0.135     0.068    0.0007
   01/01/2000 04:30:00      0.135     0.068    0.0007
   01/01/2000 04:35:00      0.135     0.068    0.0007
   01/01/2000 04:40:00      0.137     0.068    0.0007
   01/01/2000 04:45:00      0.137     0.068    0.0007
   01/01/2000 04:50:00      0.139     0.069    0.0007
   01/01/2000 04:55:00      0.139     0.069    0.0007
   01/01/2000 05:00:00      0.141     0.069    0.0007
   01/01/2000 05:05:00      0.141     0.071    0.0008
   01/01/2000 05:10:00      0.143     0.072    0.0008
   01/01/2000 05:15:00      0.145     0.072    0.0008
   01/01/2000 05:20:00      0.147     0.073    0.0008
   01/01/2000 05:25:00      0.149     0.075    0.0008
   01/01/2000 05:30:00      0.151     0.075    0.0008
   01/01/2000 05:35:00      0.153     0.075    0.0008
   01/01/2000 05:40:00      0.153     0.076    0.0008
   01/01/2000 05:45:00      0.155     0.078    0.0008
   01/01/2000 05:50:00      0.157     0.079    0.0008
   01/01/2000 05:55:00      0.159     0.079    0.0008
   01/01/2000 06:00:00      0.161     0.080    0.0008
   01/01/2000 06:05:00      0.163     0.080    0.0008
   01/01/2000 06:10:00      0.163     0.082    0.0009
   01/01/2000 06:15:00      0.165     0.083    0.0009
   01/01/2000 06:20:00      0.167     0.083    0.0009
   01/01/2000 06:25:00      0.169     0.084    0.0009
   01/01/2000 06:30:00      0.171     0.086    0.0009
   01/01/2000 06:35:00      0.173     0.086    0.0009
   01/01/2000 06:40:00      0.173     0.086    0.0009
   01/01/2000 06:45:00      0.175     0.087    0.0009
   01/01/2000 06:50:00      0.177     0.089    0.0009
   01/01/2000 06:55:00      0.179     0.090    0.0009
   01/01/2000 07:00:00      0.181     0.090    0.0010
   01/01/2000 07:05:00      0.183     0.090    0.0010
   01/01/2000 07:10:00      0.183     0.091    0.0010
   01/01/2000 07:15:00      0.185     0.093    0.0010
   01/01/2000 07:20:00      0.187     0.094    0.0010
   01/01/2000 07:25:00      0.189     0.094    0.0010
   01/01/2000 07:30:00      0.191     0.095    0.0010
   01/01/2000 07:35:00      0.193     0.095    0.0010
   01/01/2000 07:40:00      0.193     0.097    0.0010
   01/01/2000 07:45:00      0.195     0.097    0.0010
   01/01/2000 07:50:00      0.197     0.098    0.0010
   01/01/2000 07:55:00      0.199     0.100    0.0011
   01/01/2000 08:00:00      0.201     0.101    0.0011
   01/01/2000 08:05:00      0.203     0.101    0.0011
   01/01/2000 08:10:00      0.203     0.102    0.0011
   01/01/2000 08:15:00      0.205     0.102    0.0011
   01/01/2000 08:20:00      0.207     0.104    0.0011
   01/01/2000 08:25:00      0.209     0.105    0.0011
   01/01/2000 08:30:00      0.211     0.105    0.0011
   01/01/2000 08:35:00      0.213     0.105    0.0011
   01/01/2000 08:40:00      0.213     0.106    0.0011
   01/01/2000 08:45:00      0.215     0.108    0.0011
   01/01/2000 08:50:00      0.217     0.108    0.0012
   01/01/2000 08:55:00      0.219     0.110    0.0012
   01/01/2000 09:00:00      0.225     0.112    0.0012
   01/01/2000 09:05:00      0.235     0.112    0.0012
   01/01/2000 09:10:00      0.235     0.117    0.0012
   01/01/2000 09:15:00      0.245     0.123    0.0012
   01/01/2000 09:20:00      0.255     0.127    0.0013
   01/01/2000 09:25:00      0.265     0.132    0.0013
   01/01/2000 09:30:00      0.275     0.138    0.0013
   01/01/2000 09:35:00      0.285     0.138    0.0014
   01/01/2000 09:40:00      0.285     0.142    0.0014
   01/01/2000 09:45:00      0.295     0.147    0.0015
   01/01/2000 09:50:00      0.305     0.153    0.0015
   01/01/2000 09:55:00      0.315     0.157    0.0015
   01/01/2000 10:00:00      0.320     0.160    0.0016
   01/01/2000 10:05:00      0.320     0.160    0.0016
   01/01/2000 10:10:00      0.320     0.160    0.0017
   01/01/2000 10:15:00      0.320     0.160    0.0017
   01/01/2000 10:20:00      0.320     0.160    0.0017
   01/01/2000 10:25:00      0.320     0.160    0.0017
   01/01/2000 10:30:00      0.328     0.164    0.0017
   01/01/2000 10:35:00      0.344     0.164    0.0017
   01/01/2000 10:40:00      0.344     0.172    0.0018
   01/01/2000 10:45:00      0.360     0.180    0.0018
   01/01/2000 10:50:00      0.376     0.188    0.0019
   01/01/2000 10:55:00      0.392     0.196    0.0019
   01/01/2000 11:00:00      0.412     0.206    0.0020
   01/01/2000 11:05:00      0.436     0.206    0.0021
   01/01/2000 11:10:00      0.436     0.218    0.0021
   01/01/2000 11:15:00      0.460     0.230    0.0022
   01/01/2000 11:20:00      0.484     0.242    0.0023
   01/01/2000 11:25:00      0.508     0.254    0.0024
   01/01/2000 11:30:00      0.540     0.270    0.0025
   01/01/2000 11:35:00      0.580     0.270    0.0026
   01/01/2000 11:40:00      0.580     0.290    0.0028
   01/01/2000 11:45:00      0.620     0.310    0.0029
   01/01/2000 11:50:00      0.660     0.330    0.0031
   01/01/2000 11:55:00      0.700     0.350    0.0033
   01/01/2000 12:00:00      0.768     0.384    0.0034
   01/01/2000 12:05:00      0.864     0.384    0.0037
   01/01/2000 12:10:00      0.864     0.405    0.0040
   01/01/2000 12:15:00      0.960     0.400    0.0043
   01/01/2000 12:20:00      1.056     0.396    0.0047
   01/01/2000 12:25:00      1.152     0.393    0.0051
   01/01/2000 12:30:00      2.384     0.391    0.0060
   01/01/2000 12:35:00      4.752     0.391    0.0086
   01/01/2000 12:40:00      4.752     0.394    0.0163
   01/01/2000 12:45:00      7.643     0.406    0.0292
   01/01/2000 12:50:00     13.707     0.429    0.0534
   01/01/2000 12:55:00      9.514     0.471    0.0722
   01/01/2000 13:00:00      1.896     0.488    0.0676
   01/01/2000 13:05:00      1.668     0.488    0.0431
   01/01/2000 13:10:00      1.668     0.473    0.0334
   01/01/2000 13:15:00      1.440     0.459    0.0273
   01/01/2000 13:20:00      1.212     0.447    0.0231
   01/01/2000 13:25:00      0.984     0.436    0.0198
   01/01/2000 13:30:00      0.844     0.426    0.0172
   01/01/2000 13:35:00      0.792     0.426    0.0150
   01/01/2000 13:40:00      0.792     0.417    0.0134
   01/01/2000 13:45:00      0.740     0.408    0.0121
   01/01/2000 13:50:00      0.688     0.401    0.0110
   01/01/2000 13:55:00      0.636     0.394    0.0100
   01/01/2000 14:00:00      0.596     0.388    0.0091
   01/01/2000 14:05:00      0.568     0.388    0.0083
   01/01/2000 14:10:00      0.568     0.382    0.0077
   01/01/2000 14:15:00      0.540     0.377    0.0071
   01/01/2000 14:20:00      0.512     0.372    0.0066
   01/01/2000 14:25:00      0.484     0.368    0.0061
   01/01/2000 14:30:00      0.460     0.364    0.0057
   01/01/2000 14:35:00      0.440     0.364    0.0053
   01/01/2000 14:40:00      0.440     0.360    0.0049
   01/01/2000 14:45:00      0.420     0.356    0.0046
   01/01/2000 14:50:00      0.400     0.353    0.0043
   01/01/2000 14:55:00      0.380     0.350    0.0040
   01/01/2000 15:00:00      0.367     0.347    0.0037
   01/01/2000 15:05:00      0.359     0.347    0.0035
   01/01/2000 15:10:00      0.359     0.344    0.0033
   01/01/2000 15:15:00      0.353     0.341    0.0031
   01/01/2000 15:20:00      0.345     0.339    0.0029
   01/01/2000 15:25:00      0.339     0.336    0.0027
   01/01/2000 15:30:00      0.331     0.334    0.0026
   01/01/2000 15:35:00      0.325     0.334    0.0025
   01/01/2000 15:40:00      0.325     0.332    0.0024
   01/01/2000 15:45:00      0.317     0.330    0.0022
   01/01/2000 15:50:00      0.311     0.328    0.0021
   01/01/2000 15:55:00      0.303     0.326    0.0021
   01/01/2000 16:00:00      0.297     0.324    0.0020
   01/01/2000 16:05:00      0.289     0.324    0.0019
   01/01/2000 16:10:00      0.289     0.323    0.0018
   01/01/2000 16:15:00      0.283     0.321    0.0018
   01/01/2000 16:20:00      0.275     0.319    0.0017
   01/01/2000 16:25:00      0.269     0.318    0.0016
   01/01/2000 16:30:00      0.261     0.316    0.0016
   01/01/2000 16:35:00      0.255     0.316    0.0016
   01/01/2000 16:40:00      0.255     0.185    0.0015
   01/01/2000 16:45:00      0.247     0.123    0.0015
   01/01/2000 16:50:00      0.241     0.120    0.0015
   01/01/2000 16:55:00      0.233     0.116    0.0015
   01/01/2000 17:00:00      0.229     0.115    0.0014
   01/01/2000 17:05:00      0.226     0.115    0.0014
   01/01/2000 17:10:00      0.226     0.113    0.0014
   01/01/2000 17:15:00      0.224     0.112    0.0013
   01/01/2000 17:20:00      0.221     0.110    0.0013
   01/01/2000 17:25:00      0.219     0.110    0.0013
   01/01/2000 17:30:00      0.216     0.108    0.0013
   01/01/2000 17:35:00      0.214     0.108    0.0013
   01/01/2000 17:40:00      0.214     0.107    0.0013
   01/01/2000 17:45:00      0.211     0.105    0.0012
   01/01/2000 17:50:00      0.209     0.105    0.0012
   01/01/2000 17:55:00      0.206     0.103    0.0012
   01/01/2000 18:00:00      0.204     0.102    0.0012
   01/01/2000 18:05:00      0.201     0.102    0.0012
   01/01/2000 18:10:00      0.201     0.101    0.0012
   01/01/2000 18:15:00      0.199     0.100    0.0012
   01/01/2000 18:20:00      0.196     0.098    0.0012
   01/01/2000 18:25:00      0.194     0.097    0.0011
   01/01/2000 18:30:00      0.191     0.095    0.0011
   01/01/2000 18:35:00      0.189     0.095    0.0011
   01/01/2000 18:40:00      0.189     0.094    0.0011
   01/01/2000 18:45:00      0.186     0.093    0.0011
   01/01/2000 18:50:00      0.184     0.092    0.0011
   01/01/2000 18:55:00      0.181     0.090    0.0011
   01/01/2000 19:00:00      0.179     0.090    0.0011
   01/01/2000 19:05:00      0.176     0.090    0.0010
   01/01/2000 19:10:00      0.176     0.088    0.0010
   01/01/2000 19:15:00      0.174     0.087    0.0010
   01/01/2000 19:20:00      0.171     0.086    0.0010
   01/01/2000 19:25:00      0.169     0.084    0.0010
   01/01/2000 19:30:00      0.166     0.083    0.0010
   01/01/2000 19:35:00      0.164     0.083    0.0010
   01/01/2000 19:40:00      0.164     0.082    0.0010
   01/01/2000 19:45:00      0.161     0.080    0.0010
   01/01/2000 19:50:00      0.159     0.079    0.0009
   01/01/2000 19:55:00      0.156     0.078    0.0009
   01/01/2000 20:00:00      0.154     0.078    0.0009
   01/01/2000 20:05:00      0.154     0.077    0.0009
   01/01/2000 20:10:00      0.151     0.075    0.0009
   01/01/2000 20:15:00      0.149     0.075    0.0009
   01/01/2000 20:20:00      0.146     0.073    0.0009
   01/01/2000 20:25:00      0.144     0.072    0.0009
   01/01/2000 20:30:00      0.141     0.072    0.0009
   01/01/2000 20:35:00      0.141     0.071    0.0008
   01/01/2000 20:40:00      0.139     0.069    0.0008
   01/01/2000 20:45:00      0.136     0.068    0.0008
   01/01/2000 20:50:00      0.134     0.067    0.0008
   01/01/2000 20:55:00      0.131     0.065    0.0008
   01/01/2000 21:00:00      0.130     0.065    0.0008
   01/01/2000 21:05:00      0.130     0.065    0.0008
   01/01/2000 21:10:00      0.129     0.064    0.0008
   01/01/2000 21:15:00      0.129     0.064    0.0008
   01/01/2000 21:20:00      0.128     0.064    0.0008
   01/01/2000 21:25:00      0.128     0.064    0.0007
   01/01/2000 21:30:00      0.127     0.064    0.0007
   01/01/2000 21:35:00      0.127     0.064    0.0007
   01/01/2000 21:40:00      0.127     0.064    0.0007
   01/01/2000 21:45:00      0.126     0.063    0.0007
   01/01/2000 21:50:00      0.126     0.063    0.0007
   01/01/2000 21:55:00      0.125     0.063    0.0007
   01/01/2000 22:00:00      0.125     0.063    0.0007
   01/01/2000 22:05:00      0.125     0.063    0.0007
   01/01/2000 22:10:00      0.124     0.062    0.0007
   01/01/2000 22:15:00      0.124     0.062    0.0007
   01/01/2000 22:20:00      0.123     0.062    0.0007
   01/01/2000 22:25:00      0.123     0.062    0.0007
   01/01/2000 22:30:00      0.122     0.062    0.0007
   01/01/2000 22:35:00      0.122     0.061    0.0007
   01/01/2000 22:40:00      0.122     0.061    0.0007
   01/01/2000 22:45:00      0.121     0.061    0.0007
   01/01/2000 22:50:00      0.121     0.061    0.0007
   01/01/2000 22:55:00      0.120     0.060    0.0007
   01/01/2000 23:00:00      0.120     0.060    0.0007
   01/01/2000 23:05:00      0.120     0.060    0.0007
   01/01/2000 23:10:00      0.119     0.060    0.0007
   01/01/2000 23:15:00      0.119     0.060    0.0007
   01/01/2000 23:20:00      0.118     0.059    0.0007
   01/01/2000 23:25:00      0.118     0.059    0.0007
   01/01/2000 23:30:00      0.117     0.059    0.0007
   01/01/2000 23:35:00      0.117     0.058    0.0007
   01/01/2000 23:40:00      0.117     0.058    0.0007
   01/01/2000 23:45:00      0.116     0.058    0.0007
   01/01/2000 23:50:00      0.116     0.058    0.0007
   01/01/2000 23:55:00      0.115     0.058    0.0007
   01/02/2000 00:00:00      0.115     0.058    0.0007
  
  
  <<< Subcatchment S2 >>>
  ---------------------------------------------------
  Date        Time        Precip.    Losses    Runoff
                            mm/hr     mm/hr       CMS
  ---------------------------------------------------
   01/01/2000 00:05:00      0.000     0.000    0.0000
   01/01/2000 00:10:00      0.000     0.000    0.0000
   01/01/2000 00:15:00      0.000     0.000    0.0000
   01/01/2000 00:20:00      0.000     0.000    0.0000
   01/01/2000 00:25:00      0.000     0.000    0.0000
   01/01/2000 00:30:00      0.000     0.000    0.0000
   01/01/2000 00:35:00      0.000     0.000    0.0000
   01/01/2000 00:40:00      0.000     0.000    0.0000
   01/01/2000 00:45:00      0.000     0.000    0.0000
   01/01/2000 00:50:00      0.000     0.000    0.0000
   01/01/2000 00:55:00      0.000     0.000    0.0000
   01/01/2000 01:00:00      0.101     0.000    0.0000
   01/01/2000 01:05:00      0.101     0.091    0.0000
   01/01/2000 01:10:00      0.101     0.091    0.0000
   01/01/2000 01:15:00      0.103     0.093    0.0000
   01/01/2000 01:20:00      0.103     0.093    0.0000
   01/01/2000 01:25:00      0.105     0.094    0.0000
   01/01/2000 01:30:00      0.105     0.094    0.0000
   01/01/2000 01:35:00      0.105     0.094    0.0000
   01/01/2000 01:40:00      0.107     0.096    0.0000
   01/01/2000 01:45:00      0.107     0.096    0.0000
   01/01/2000 01:50:00      0.109     0.098    0.0000
   01/01/2000 01:55:00      0.109     0.098    0.0000
   01/01/2000 02:00:00      0.111     0.100    0.0000
   01/01/2000 02:05:00      0.111     0.100    0.0000
   01/01/2000 02:10:00      0.111     0.100    0.0000
   01/01/2000 02:15:00      0.113     0.102    0.0000
   01/01/2000 02:20:00      0.113     0.102    0.0000
   01/01/2000 02:25:00      0.115     0.104    0.0000
   01/01/2000 02:30:00      0.115     0.104    0.0000
   01/01/2000 02:35:00      0.115     0.104    0.0000
   01/01/2000 02:40:00      0.117     0.105    0.0000
   01/01/2000 02:45:00      0.117     0.105    0.0000
   01/01/2000 02:50:00      0.119     0.107    0.0000
   01/01/2000 02:55:00      0.119     0.107    0.0000
   01/01/2000 03:00:00      0.121     0.107    0.0000
   01/01/2000 03:05:00      0.121     0.109    0.0000
   01/01/2000 03:10:00      0.121     0.109    0.0000
   01/01/2000 03:15:00      0.123     0.111    0.0000
   01/01/2000 03:20:00      0.123     0.111    0.0000
   01/01/2000 03:25:00      0.125     0.112    0.0000
   01/01/2000 03:30:00      0.125     0.112    0.0000
   01/01/2000 03:35:00      0.125     0.112    0.0000
   01/01/2000 03:40:00      0.127     0.114    0.0000
   01/01/2000 03:45:00      0.127     0.114    0.0000
   01/01/2000 03:50:00      0.129     0.116    0.0000
   01/01/2000 03:55:00      0.129     0.116    0.0000
   01/01/2000 04:00:00      0.131     0.116    0.0000
   01/01/2000 04:05:00      0.131     0.118    0.0000
   01/01/2000 04:10:00      0.131     0.118    0.0000
   01/01/2000 04:15:00      0.133     0.120    0.0000
   01/01/2000 04:20:00      0.133     0.120    0.0000
   01/01/2000 04:25:00      0.135     0.122    0.0000
   01/01/2000 04:30:00      0.135     0.122    0.0000
   01/01/2000 04:35:00      0.135     0.122    0.0000
   01/01/2000 04:40:00      0.137     0.123    0.0000
   01/01/2000 04:45:00      0.137     0.123    0.0000
   01/01/2000 04:50:00      0.139     0.125    0.0000
   01/01/2000 04:55:00      0.139     0.125    0.0000
   01/01/2000 05:00:00      0.141     0.125    0.0000
   01/01/2000 05:05:00      0.141     0.127    0.0000
   01/01/2000 05:10:00      0.143     0.129    0.0000
   01/01/2000 05:15:00      0.145     0.131    0.0000
   01/01/2000 05:20:00      0.147     0.132    0.0000
   01/01/2000 05:25:00      0.149     0.134    0.0000
   01/01/2000 05:30:00      0.151     0.134    0.0000
   01/01/2000 05:35:00      0.153     0.136    0.0000
   01/01/2000 05:40:00      0.153     0.138    0.0000
   01/01/2000 05:45:00      0.155     0.139    0.0000
   01/01/2000 05:50:00      0.157     0.141    0.0000
   01/01/2000 05:55:00      0.159     0.143    0.0000
   01/01/2000 06:00:00      0.161     0.145    0.0000
   01/01/2000 06:05:00      0.163     0.145    0.0000
   01/01/2000 06:10:00      0.163     0.147    0.0000
   01/01/2000 06:15:00      0.165     0.149    0.0000
   01/01/2000 06:20:00      0.167     0.150    0.0000
   01/01/2000 06:25:00      0.169     0.152    0.0000
   01/01/2000 06:30:00      0.171     0.154    0.0000
   01/01/2000 06:35:00      0.173     0.154    0.0000
   01/01/2000 06:40:00      0.173     0.156    0.0000
   01/01/2000 06:45:00      0.175     0.157    0.0000
   01/01/2000 06:50:00      0.177     0.159    0.0000
   01/01/2000 06:55:00      0.179     0.161    0.0000
   01/01/2000 07:00:00      0.181     0.163    0.0000
   01/01/2000 07:05:00      0.183     0.163    0.0000
   01/01/2000 07:10:00      0.183     0.165    0.0000
   01/01/2000 07:15:00      0.185     0.167    0.0000
   01/01/2000 07:20:00      0.187     0.168    0.0000
   01/01/2000 07:25:00      0.189     0.170    0.0000
   01/01/2000 07:30:00      0.191     0.172    0.0000
   01/01/2000 07:35:00      0.193     0.172    0.0000
   01/01/2000 07:40:00      0.193     0.174    0.0000
   01/01/2000 07:45:00      0.195     0.175    0.0000
   01/01/2000 07:50:00      0.197     0.177    0.0000
   01/01/2000 07:55:00      0.199     0.179    0.0000
   01/01/2000 08:00:00      0.201     0.181    0.0000
   01/01/2000 08:05:00      0.203     0.181    0.0000
   01/01/2000 08:10:00      0.203     0.183    0.0000
   01/01/2000 08:15:00      0.205     0.184    0.0000
   01/01/2000 08:20:00      0.207     0.186    0.0000
   01/01/2000 08:25:00      0.209     0.188    0.0000
   01/01/2000 08:30:00      0.211     0.190    0.0000
   01/01/2000 08:35:00      0.213     0.190    0.0000
   01/01/2000 08:40:00      0.213     0.192    0.0000
   01/01/2000 08:45:00      0.215     0.194    0.0000
   01/01/2000 08:50:00      0.217     0.195    0.0000
   01/01/2000 08:55:00      0.219     0.197    0.0000
   01/01/2000 09:00:00      0.225     0.202    0.0000
   01/01/2000 09:05:00      0.235     0.202    0.0000
   01/01/2000 09:10:00      0.235     0.211    0.0000
   01/01/2000 09:15:00      0.245     0.221    0.0000
   01/01/2000 09:20:00      0.255     0.229    0.0000
   01/01/2000 09:25:00      0.265     0.238    0.0000
   01/01/2000 09:30:00      0.275     0.248    0.0003
   01/01/2000 09:35:00      0.285     0.248    0.0003
   01/01/2000 09:40:00      0.285     0.256    0.0003
   01/01/2000 09:45:00      0.295     0.265    0.0003
   01/01/2000 09:50:00      0.305     0.275    0.0003
   01/01/2000 09:55:00      0.315     0.283    0.0003
   01/01/2000 10:00:00      0.320     0.288    0.0003
   01/01/2000 10:05:00      0.320     0.288    0.0003
   01/01/2000 10:10:00      0.320     0.288    0.0004
   01/01/2000 10:15:00      0.320     0.288    0.0004
   01/01/2000 10:20:00      0.320     0.288    0.0004
   01/01/2000 10:25:00      0.320     0.288    0.0004
   01/01/2000 10:30:00      0.328     0.295    0.0004
   01/01/2000 10:35:00      0.344     0.295    0.0004
   01/01/2000 10:40:00      0.344     0.310    0.0004
   01/01/2000 10:45:00      0.360     0.324    0.0004
   01/01/2000 10:50:00      0.376     0.338    0.0004
   01/01/2000 10:55:00      0.392     0.353    0.0004
   01/01/2000 11:00:00      0.412     0.371    0.0004
   01/01/2000 11:05:00      0.436     0.371    0.0004
   01/01/2000 11:10:00      0.436     0.392    0.0005
   01/01/2000 11:15:00      0.460     0.414    0.0005
   01/01/2000 11:20:00      0.484     0.436    0.0005
   01/01/2000 11:25:00      0.508     0.457    0.0005
   01/01/2000 11:30:00      0.540     0.486    0.0006
   01/01/2000 11:35:00      0.580     0.486    0.0006
   01/01/2000 11:40:00      0.580     0.522    0.0006
   01/01/2000 11:45:00      0.620     0.558    0.0006
   01/01/2000 11:50:00      0.660     0.594    0.0007
   01/01/2000 11:55:00      0.700     0.630    0.0007
   01/01/2000 12:00:00      0.768     0.691    0.0008
   01/01/2000 12:05:00      0.864     0.691    0.0008
   01/01/2000 12:10:00      0.864     0.728    0.0009
   01/01/2000 12:15:00      0.960     0.720    0.0010
   01/01/2000 12:20:00      1.056     0.713    0.0011
   01/01/2000 12:25:00      1.152     0.707    0.0012
   01/01/2000 12:30:00      2.384     0.703    0.0015
   01/01/2000 12:35:00      4.752     0.703    0.0025
   01/01/2000 12:40:00      4.752     0.709    0.0054
   01/01/2000 12:45:00      7.643     0.732    0.0102
   01/01/2000 12:50:00     13.707     0.774    0.0199
   01/01/2000 12:55:00      9.514     0.853    0.0283
   01/01/2000 13:00:00      1.896     0.891    0.0285
   01/01/2000 13:05:00      1.668     0.891    0.0213
   01/01/2000 13:10:00      1.668     0.871    0.0196
   01/01/2000 13:15:00      1.440     0.852    0.0182
   01/01/2000 13:20:00      1.212     0.833    0.0170
   01/01/2000 13:25:00      0.984     0.815    0.0158
   01/01/2000 13:30:00      0.844     0.798    0.0146
   01/01/2000 13:35:00      0.792     0.798    0.0135
   01/01/2000 13:40:00      0.792     0.781    0.0125
   01/01/2000 13:45:00      0.740     0.766    0.0116
   01/01/2000 13:50:00      0.688     0.752    0.0108
   01/01/2000 13:55:00      0.636     0.739    0.0100
   01/01/2000 14:00:00      0.596     0.728    0.0093
   01/01/2000 14:05:00      0.568     0.728    0.0086
   01/01/2000 14:10:00      0.568     0.716    0.0080
   01/01/2000 14:15:00      0.540     0.706    0.0075
   01/01/2000 14:20:00      0.512     0.697    0.0069
   01/01/2000 14:25:00      0.484     0.688    0.0064
   01/01/2000 14:30:00      0.460     0.679    0.0060
   01/01/2000 14:35:00      0.440     0.679    0.0055
   01/01/2000 14:40:00      0.440     0.671    0.0051
   01/01/2000 14:45:00      0.420     0.664    0.0048
   01/01/2000 14:50:00      0.400     0.657    0.0044
   01/01/2000 14:55:00      0.380     0.650    0.0041
   01/01/2000 15:00:00      0.367     0.644    0.0038
   01/01/2000 15:05:00      0.359     0.644    0.0035
   01/01/2000 15:10:00      0.359     0.638    0.0032
   01/01/2000 15:15:00      0.353     0.633    0.0030
   01/01/2000 15:20:00      0.345     0.627    0.0027
   01/01/2000 15:25:00      0.339     0.622    0.0025
   01/01/2000 15:30:00      0.331     0.618    0.0023
   01/01/2000 15:35:00      0.325     0.618    0.0021
   01/01/2000 15:40:00      0.325     0.613    0.0020
   01/01/2000 15:45:00      0.317     0.609    0.0018
   01/01/2000 15:50:00      0.311     0.605    0.0016
   01/01/2000 15:55:00      0.303     0.601    0.0015
   01/01/2000 16:00:00      0.297     0.597    0.0014
   01/01/2000 16:05:00      0.289     0.597    0.0012
   01/01/2000 16:10:00      0.289     0.593    0.0011
   01/01/2000 16:15:00      0.283     0.590    0.0010
   01/01/2000 16:20:00      0.275     0.586    0.0009
   01/01/2000 16:25:00      0.269     0.583    0.0008
   01/01/2000 16:30:00      0.261     0.580    0.0007
   01/01/2000 16:35:00      0.255     0.580    0.0006
   01/01/2000 16:40:00      0.255     0.577    0.0006
   01/01/2000 16:45:00      0.247     0.574    0.0005
   01/01/2000 16:50:00      0.241     0.571    0.0004
   01/01/2000 16:55:00      0.233     0.569    0.0004
   01/01/2000 17:00:00      0.229     0.566    0.0003
   01/01/2000 17:05:00      0.226     0.566    0.0003
   01/01/2000 17:10:00      0.226     0.563    0.0000
   01/01/2000 17:15:00      0.224     0.561    0.0000
   01/01/2000 17:20:00      0.221     0.558    0.0000
   01/01/2000 17:25:00      0.219     0.285    0.0000
   01/01/2000 17:30:00      0.216     0.194    0.0000
   01/01/2000 17:35:00      0.214     0.194    0.0000
   01/01/2000 17:40:00      0.214     0.193    0.0000
   01/01/2000 17:45:00      0.211     0.190    0.0000
   01/01/2000 17:50:00      0.209     0.188    0.0000
   01/01/2000 17:55:00      0.206     0.185    0.0000
   01/01/2000 18:00:00      0.204     0.184    0.0000
   01/01/2000 18:05:00      0.201     0.184    0.0000
   01/01/2000 18:10:00      0.201     0.181    0.0000
   01/01/2000 18:15:00      0.199     0.179    0.0000
   01/01/2000 18:20:00      0.196     0.176    0.0000
   01/01/2000 18:25:00      0.194     0.175    0.0000
   01/01/2000 18:30:00      0.191     0.172    0.0000
   01/01/2000 18:35:00      0.189     0.172    0.0000
   01/01/2000 18:40:00      0.189     0.170    0.0000
   01/01/2000 18:45:00      0.186     0.167    0.0000
   01/01/2000 18:50:00      0.184     0.166    0.0000
   01/01/2000 18:55:00      0.181     0.163    0.0000
   01/01/2000 19:00:00      0.179     0.161    0.0000
   01/01/2000 19:05:00      0.176     0.161    0.0000
   01/01/2000 19:10:00      0.176     0.158    0.0000
   01/01/2000 19:15:00      0.174     0.157    0.0000
   01/01/2000 19:20:00      0.171     0.154    0.0000
   01/01/2000 19:25:00      0.169     0.152    0.0000
   01/01/2000 19:30:00      0.166     0.149    0.0000
   01/01/2000 19:35:00      0.164     0.149    0.0000
   01/01/2000 19:40:00      0.164     0.148    0.0000
   01/01/2000 19:45:00      0.161     0.145    0.0000
   01/01/2000 19:50:00      0.159     0.143    0.0000
   01/01/2000 19:55:00      0.156     0.140    0.0000
   01/01/2000 20:00:00      0.154     0.140    0.0000
   01/01/2000 20:05:00      0.154     0.139    0.0000
   01/01/2000 20:10:00      0.151     0.136    0.0000
   01/01/2000 20:15:00      0.149     0.134    0.0000
   01/01/2000 20:20:00      0.146     0.131    0.0000
   01/01/2000 20:25:00      0.144     0.130    0.0000
   01/01/2000 20:30:00      0.141     0.130    0.0000
   01/01/2000 20:35:00      0.141     0.127    0.0000
   01/01/2000 20:40:00      0.139     0.125    0.0000
   01/01/2000 20:45:00      0.136     0.122    0.0000
   01/01/2000 20:50:00      0.134     0.121    0.0000
   01/01/2000 20:55:00      0.131     0.118    0.0000
   01/01/2000 21:00:00      0.130     0.118    0.0000
   01/01/2000 21:05:00      0.130     0.117    0.0000
   01/01/2000 21:10:00      0.129     0.116    0.0000
   01/01/2000 21:15:00      0.129     0.116    0.0000
   01/01/2000 21:20:00      0.128     0.115    0.0000
   01/01/2000 21:25:00      0.128     0.115    0.0000
   01/01/2000 21:30:00      0.127     0.115    0.0000
   01/01/2000 21:35:00      0.127     0.114    0.0000
   01/01/2000 21:40:00      0.127     0.114    0.0000
   01/01/2000 21:45:00      0.126     0.113    0.0000
   01/01/2000 21:50:00      0.126     0.113    0.0000
   01/01/2000 21:55:00      0.125     0.112    0.0000
   01/01/2000 22:00:00      0.125     0.112    0.0000
   01/01/2000 22:05:00      0.125     0.112    0.0000
   01/01/2000 22:10:00      0.124     0.112    0.0000
   01/01/2000 22:15:00      0.124     0.112    0.0000
   01/01/2000 22:20:00      0.123     0.111    0.0000
   01/01/2000 22:25:00      0.123     0.111    0.0000
   01/01/2000 22:30:00      0.122     0.111    0.0000
   01/01/2000 22:35:00      0.122     0.110    0.0000
   01/01/2000 22:40:00      0.122     0.110    0.0000
   01/01/2000 22:45:00      0.121     0.109    0.0000
   01/01/2000 22:50:00      0.121     0.109    0.0000
   01/01/2000 22:55:00      0.120     0.108    0.0000
   01/01/2000 23:00:00      0.120     0.108    0.0000
   01/01/2000 23:05:00      0.120     0.108    0.0000
   01/01/2000 23:10:00      0.119     0.107    0.0000
   01/01/2000 23:15:00      0.119     0.107    0.0000
   01/01/2000 23:20:00      0.118     0.106    0.0000
   01/01/2000 23:25:00      0.118     0.106    0.0000
   01/01/2000 23:30:00      0.117     0.106    0.0000
   01/01/2000 23:35:00      0.117     0.105    0.0000
   01/01/2000 23:40:00      0.117     0.105    0.0000
   01/01/2000 23:45:00      0.116     0.104    0.0000
   01/01/2000 23:50:00      0.116     0.104    0.0000
   01/01/2000 23:55:00      0.115     0.104    0.0000
   01/02/2000 00:00:00      0.115     0.104    0.0000
  
  
  <<< Subcatchment S3 >>>
  ---------------------------------------------------
  Date        Time        Precip.    Losses    Runoff
                            mm/hr     mm/hr       CMS
  ---------------------------------------------------
   01/01/2000 00:05:00      0.000     0.000    0.0000
   01/01/2000 00:10:00      0.000     0.000    0.0000
   01/01/2000 00:15:00      0.000     0.000    0.0000
   01/01/2000 00:20:00      0.000     0.000    0.0000
   01/01/2000 00:25:00      0.000     0.000    0.0000
   01/01/2000 00:30:00      0.000     0.000    0.0000
   01/01/2000 00:35:00      0.000     0.000    0.0000
   01/01/2000 00:40:00      0.000     0.000    0.0000
   01/01/2000 00:45:00      0.000     0.000    0.0000
   01/01/2000 00:50:00      0.000     0.000    0.0000
   01/01/2000 00:55:00      0.000     0.000    0.0000
   01/01/2000 01:00:00      0.101     0.000    0.0000
   01/01/2000 01:05:00      0.101     0.010    0.0000
   01/01/2000 01:10:00      0.101     0.010    0.0000
   01/01/2000 01:15:00      0.103     0.010    0.0000
   01/01/2000 01:20:00      0.103     0.010    0.0000
   01/01/2000 01:25:00      0.105     0.010    0.0000
   01/01/2000 01:30:00      0.105     0.010    0.0000
   01/01/2000 01:35:00      0.105     0.010    0.0000
   01/01/2000 01:40:00      0.107     0.011    0.0000
   01/01/2000 01:45:00      0.107     0.011    0.0000
   01/01/2000 01:50:00      0.109     0.011    0.0000
   01/01/2000 01:55:00      0.109     0.011    0.0000
   01/01/2000 02:00:00      0.111     0.011    0.0000
   01/01/2000 02:05:00      0.111     0.011    0.0000
   01/01/2000 02:10:00      0.111     0.011    0.0000
   01/01/2000 02:15:00      0.113     0.011    0.0003
   01/01/2000 02:20:00      0.113     0.011    0.0003
   01/01/2000 02:25:00      0.115     0.011    0.0004
   01/01/2000 02:30:00      0.115     0.011    0.0004
   01/01/2000 02:35:00      0.115     0.011    0.0004
   01/01/2000 02:40:00      0.117     0.012    0.0005
   01/01/2000 02:45:00      0.117     0.012    0.0005
   01/01/2000 02:50:00      0.119     0.012    0.0005
   01/01/2000 02:55:00      0.119     0.012    0.0005
   01/01/2000 03:00:00      0.121     0.012    0.0006
   01/01/2000 03:05:00      0.121     0.012    0.0006
   01/01/2000 03:10:00      0.121     0.012    0.0006
   01/01/2000 03:15:00      0.123     0.012    0.0006
   01/01/2000 03:20:00      0.123     0.012    0.0007
   01/01/2000 03:25:00      0.125     0.012    0.0007
   01/01/2000 03:30:00      0.125     0.012    0.0007
   01/01/2000 03:35:00      0.125     0.012    0.0007
   01/01/2000 03:40:00      0.127     0.013    0.0007
   01/01/2000 03:45:00      0.127     0.013    0.0008
   01/01/2000 03:50:00      0.129     0.013    0.0008
   01/01/2000 03:55:00      0.129     0.013    0.0008
   01/01/2000 04:00:00      0.131     0.013    0.0008
   01/01/2000 04:05:00      0.131     0.013    0.0008
   01/01/2000 04:10:00      0.131     0.013    0.0008
   01/01/2000 04:15:00      0.133     0.013    0.0008
   01/01/2000 04:20:00      0.133     0.013    0.0008
   01/01/2000 04:25:00      0.135     0.013    0.0008
   01/01/2000 04:30:00      0.135     0.013    0.0009
   01/01/2000 04:35:00      0.135     0.013    0.0009
   01/01/2000 04:40:00      0.137     0.014    0.0009
   01/01/2000 04:45:00      0.137     0.014    0.0009
   01/01/2000 04:50:00      0.139     0.014    0.0009
   01/01/2000 04:55:00      0.139     0.014    0.0009
   01/01/2000 05:00:00      0.141     0.014    0.0009
   01/01/2000 05:05:00      0.141     0.014    0.0009
   01/01/2000 05:10:00      0.143     0.014    0.0009
   01/01/2000 05:15:00      0.145     0.014    0.0009
   01/01/2000 05:20:00      0.147     0.015    0.0009
   01/01/2000 05:25:00      0.149     0.015    0.0010
   01/01/2000 05:30:00      0.151     0.015    0.0010
   01/01/2000 05:35:00      0.153     0.015    0.0010
   01/01/2000 05:40:00      0.153     0.015    0.0010
   01/01/2000 05:45:00      0.155     0.015    0.0010
   01/01/2000 05:50:00      0.157     0.016    0.0010
   01/01/2000 05:55:00      0.159     0.016    0.0010
   01/01/2000 06:00:00      0.161     0.016    0.0010
   01/01/2000 06:05:00      0.163     0.016    0.0010
   01/01/2000 06:10:00      0.163     0.016    0.0011
   01/01/2000 06:15:00      0.165     0.016    0.0011
   01/01/2000 06:20:00      0.167     0.017    0.0011
   01/01/2000 06:25:00      0.169     0.017    0.0011
   01/01/2000 06:30:00      0.171     0.017    0.0011
   01/01/2000 06:35:00      0.173     0.017    0.0011
   01/01/2000 06:40:00      0.173     0.017    0.0011
   01/01/2000 06:45:00      0.175     0.017    0.0011
   01/01/2000 06:50:00      0.177     0.018    0.0011
   01/01/2000 06:55:00      0.179     0.018    0.0012
   01/01/2000 07:00:00      0.181     0.018    0.0012
   01/01/2000 07:05:00      0.183     0.018    0.0012
   01/01/2000 07:10:00      0.183     0.018    0.0012
   01/01/2000 07:15:00      0.185     0.018    0.0012
   01/01/2000 07:20:00      0.187     0.019    0.0012
   01/01/2000 07:25:00      0.189     0.019    0.0012
   01/01/2000 07:30:00      0.191     0.019    0.0012
   01/01/2000 07:35:00      0.193     0.019    0.0013
   01/01/2000 07:40:00      0.193     0.019    0.0013
   01/01/2000 07:45:00      0.195     0.019    0.0013
   01/01/2000 07:50:00      0.197     0.020    0.0013
   01/01/2000 07:55:00      0.199     0.020    0.0013
   01/01/2000 08:00:00      0.201     0.020    0.0013
   01/01/2000 08:05:00      0.203     0.020    0.0013
   01/01/2000 08:10:00      0.203     0.020    0.0013
   01/01/2000 08:15:00      0.205     0.020    0.0013
   01/01/2000 08:20:00      0.207     0.021    0.0014
   01/01/2000 08:25:00      0.209     0.021    0.0014
   01/01/2000 08:30:00      0.211     0.021    0.0014
   01/01/2000 08:35:00      0.213     0.021    0.0014
   01/01/2000 08:40:00      0.213     0.021    0.0014
   01/01/2000 08:45:00      0.215     0.021    0.0014
   01/01/2000 08:50:00      0.217     0.022    0.0014
   01/01/2000 08:55:00      0.219     0.022    0.0014
   01/01/2000 09:00:00      0.225     0.022    0.0015
   01/01/2000 09:05:00      0.235     0.022    0.0015
   01/01/2000 09:10:00      0.235     0.023    0.0015
   01/01/2000 09:15:00      0.245     0.024    0.0015
   01/01/2000 09:20:00      0.255     0.025    0.0016
   01/01/2000 09:25:00      0.265     0.026    0.0016
   01/01/2000 09:30:00      0.275     0.027    0.0016
   01/01/2000 09:35:00      0.285     0.027    0.0017
   01/01/2000 09:40:00      0.285     0.028    0.0017
   01/01/2000 09:45:00      0.295     0.029    0.0018
   01/01/2000 09:50:00      0.305     0.030    0.0018
   01/01/2000 09:55:00      0.315     0.031    0.0019
   01/01/2000 10:00:00      0.320     0.032    0.0019
   01/01/2000 10:05:00      0.320     0.032    0.0020
   01/01/2000 10:10:00      0.320     0.032    0.0020
   01/01/2000 10:15:00      0.320     0.032    0.0020
   01/01/2000 10:20:00      0.320     0.032    0.0021
   01/01/2000 10:25:00      0.320     0.032    0.0021
   01/01/2000 10:30:00      0.328     0.033    0.0021
   01/01/2000 10:35:00      0.344     0.033    0.0021
   01/01/2000 10:40:00      0.344     0.034    0.0022
   01/01/2000 10:45:00      0.360     0.036    0.0022
   01/01/2000 10:50:00      0.376     0.038    0.0023
   01/01/2000 10:55:00      0.392     0.039    0.0023
   01/01/2000 11:00:00      0.412     0.041    0.0024
   01/01/2000 11:05:00      0.436     0.041    0.0025
   01/01/2000 11:10:00      0.436     0.044    0.0026
   01/01/2000 11:15:00      0.460     0.046    0.0027
   01/01/2000 11:20:00      0.484     0.048    0.0028
   01/01/2000 11:25:00      0.508     0.051    0.0029
   01/01/2000 11:30:00      0.540     0.054    0.0030
   01/01/2000 11:35:00      0.580     0.054    0.0031
   01/01/2000 11:40:00      0.580     0.058    0.0033
   01/01/2000 11:45:00      0.620     0.062    0.0035
   01/01/2000 11:50:00      0.660     0.066    0.0044
   01/01/2000 11:55:00      0.700     0.070    0.0054
   01/01/2000 12:00:00      0.768     0.077    0.0058
   01/01/2000 12:05:00      0.864     0.077    0.0062
   01/01/2000 12:10:00      0.864     0.081    0.0067
   01/01/2000 12:15:00      0.960     0.080    0.0072
   01/01/2000 12:20:00      1.056     0.079    0.0078
   01/01/2000 12:25:00      1.152     0.079    0.0085
   01/01/2000 12:30:00      2.384     0.078    0.0098
   01/01/2000 12:35:00      4.752     0.078    0.0133
   01/01/2000 12:40:00      4.752     0.079    0.0235
   01/01/2000 12:45:00      7.643     0.081    0.0408
   01/01/2000 12:50:00     13.707     0.084    0.0733
   01/01/2000 12:55:00      9.514     0.090    0.0993
   01/01/2000 13:00:00      1.896     0.090    0.0949
   01/01/2000 13:05:00      1.668     0.090    0.0615
   01/01/2000 13:10:00      1.668     0.085    0.0456
   01/01/2000 13:15:00      1.440     0.081    0.0353
   01/01/2000 13:20:00      1.212     0.079    0.0283
   01/01/2000 13:25:00      0.984     0.077    0.0232
   01/01/2000 13:30:00      0.844     0.076    0.0193
   01/01/2000 13:35:00      0.792     0.076    0.0164
   01/01/2000 13:40:00      0.792     0.075    0.0143
   01/01/2000 13:45:00      0.740     0.074    0.0127
   01/01/2000 13:50:00      0.688     0.073    0.0114
   01/01/2000 13:55:00      0.636     0.072    0.0103
   01/01/2000 14:00:00      0.596     0.071    0.0094
   01/01/2000 14:05:00      0.568     0.071    0.0087
   01/01/2000 14:10:00      0.568     0.071    0.0081
   01/01/2000 14:15:00      0.540     0.070    0.0075
   01/01/2000 14:20:00      0.512     0.069    0.0071
   01/01/2000 14:25:00      0.484     0.069    0.0066
   01/01/2000 14:30:00      0.460     0.068    0.0063
   01/01/2000 14:35:00      0.440     0.068    0.0059
   01/01/2000 14:40:00      0.440     0.068    0.0056
   01/01/2000 14:45:00      0.420     0.068    0.0054
   01/01/2000 14:50:00      0.400     0.067    0.0051
   01/01/2000 14:55:00      0.380     0.067    0.0049
   01/01/2000 15:00:00      0.367     0.066    0.0047
   01/01/2000 15:05:00      0.359     0.066    0.0045
   01/01/2000 15:10:00      0.359     0.042    0.0044
   01/01/2000 15:15:00      0.353     0.035    0.0042
   01/01/2000 15:20:00      0.345     0.034    0.0041
   01/01/2000 15:25:00      0.339     0.034    0.0040
   01/01/2000 15:30:00      0.331     0.033    0.0039
   01/01/2000 15:35:00      0.325     0.033    0.0038
   01/01/2000 15:40:00      0.325     0.032    0.0037
   01/01/2000 15:45:00      0.317     0.032    0.0036
   01/01/2000 15:50:00      0.311     0.031    0.0035
   01/01/2000 15:55:00      0.303     0.030    0.0035
   01/01/2000 16:00:00      0.297     0.030    0.0034
   01/01/2000 16:05:00      0.289     0.030    0.0033
   01/01/2000 16:10:00      0.289     0.029    0.0033
   01/01/2000 16:15:00      0.283     0.028    0.0032
   01/01/2000 16:20:00      0.275     0.027    0.0031
   01/01/2000 16:25:00      0.269     0.027    0.0031
   01/01/2000 16:30:00      0.261     0.026    0.0030
   01/01/2000 16:35:00      0.255     0.026    0.0030
   01/01/2000 16:40:00      0.255     0.025    0.0029
   01/01/2000 16:45:00      0.247     0.025    0.0028
   01/01/2000 16:50:00      0.241     0.024    0.0028
   01/01/2000 16:55:00      0.233     0.023    0.0027
   01/01/2000 17:00:00      0.229     0.023    0.0027
   01/01/2000 17:05:00      0.226     0.023    0.0026
   01/01/2000 17:10:00      0.226     0.023    0.0026
   01/01/2000 17:15:00      0.224     0.022    0.0025
   01/01/2000 17:20:00      0.221     0.022    0.0025
   01/01/2000 17:25:00      0.219     0.022    0.0024
   01/01/2000 17:30:00      0.216     0.022    0.0024
   01/01/2000 17:35:00      0.214     0.022    0.0024
   01/01/2000 17:40:00      0.214     0.021    0.0023
   01/01/2000 17:45:00      0.211     0.021    0.0023
   01/01/2000 17:50:00      0.209     0.021    0.0023
   01/01/2000 17:55:00      0.206     0.021    0.0023
   01/01/2000 18:00:00      0.204     0.020    0.0022
   01/01/2000 18:05:00      0.201     0.020    0.0022
   01/01/2000 18:10:00      0.201     0.020    0.0022
   01/01/2000 18:15:00      0.199     0.020    0.0022
   01/01/2000 18:20:00      0.196     0.020    0.0021
   01/01/2000 18:25:00      0.194     0.019    0.0021
   01/01/2000 18:30:00      0.191     0.019    0.0021
   01/01/2000 18:35:00      0.189     0.019    0.0021
   01/01/2000 18:40:00      0.189     0.019    0.0020
   01/01/2000 18:45:00      0.186     0.019    0.0020
   01/01/2000 18:50:00      0.184     0.018    0.0020
   01/01/2000 18:55:00      0.181     0.018    0.0020
   01/01/2000 19:00:00      0.179     0.018    0.0020
   01/01/2000 19:05:00      0.176     0.018    0.0019
   01/01/2000 19:10:00      0.176     0.018    0.0019
   01/01/2000 19:15:00      0.174     0.017    0.0019
   01/01/2000 19:20:00      0.171     0.017    0.0019
   01/01/2000 19:25:00      0.169     0.017    0.0018
   01/01/2000 19:30:00      0.166     0.017    0.0018
   01/01/2000 19:35:00      0.164     0.017    0.0018
   01/01/2000 19:40:00      0.164     0.016    0.0018
   01/01/2000 19:45:00      0.161     0.016    0.0018
   01/01/2000 19:50:00      0.159     0.016    0.0017
   01/01/2000 19:55:00      0.156     0.016    0.0017
   01/01/2000 20:00:00      0.154     0.016    0.0017
   01/01/2000 20:05:00      0.154     0.015    0.0017
   01/01/2000 20:10:00      0.151     0.015    0.0017
   01/01/2000 20:15:00      0.149     0.015    0.0016
   01/01/2000 20:20:00      0.146     0.015    0.0016
   01/01/2000 20:25:00      0.144     0.014    0.0016
   01/01/2000 20:30:00      0.141     0.014    0.0016
   01/01/2000 20:35:00      0.141     0.014    0.0016
   01/01/2000 20:40:00      0.139     0.014    0.0015
   01/01/2000 20:45:00      0.136     0.014    0.0015
   01/01/2000 20:50:00      0.134     0.013    0.0015
   01/01/2000 20:55:00      0.131     0.013    0.0015
   01/01/2000 21:00:00      0.130     0.013    0.0015
   01/01/2000 21:05:00      0.130     0.013    0.0014
   01/01/2000 21:10:00      0.129     0.013    0.0014
   01/01/2000 21:15:00      0.129     0.013    0.0014
   01/01/2000 21:20:00      0.128     0.013    0.0014
   01/01/2000 21:25:00      0.128     0.013    0.0014
   01/01/2000 21:30:00      0.127     0.013    0.0014
   01/01/2000 21:35:00      0.127     0.013    0.0014
   01/01/2000 21:40:00      0.127     0.013    0.0014
   01/01/2000 21:45:00      0.126     0.013    0.0013
   01/01/2000 21:50:00      0.126     0.013    0.0013
   01/01/2000 21:55:00      0.125     0.012    0.0013
   01/01/2000 22:00:00      0.125     0.012    0.0013
   01/01/2000 22:05:00      0.125     0.012    0.0013
   01/01/2000 22:10:00      0.124     0.012    0.0013
   01/01/2000 22:15:00      0.124     0.012    0.0013
   01/01/2000 22:20:00      0.123     0.012    0.0013
   01/01/2000 22:25:00      0.123     0.012    0.0013
   01/01/2000 22:30:00      0.122     0.012    0.0013
   01/01/2000 22:35:00      0.122     0.012    0.0013
   01/01/2000 22:40:00      0.122     0.012    0.0013
   01/01/2000 22:45:00      0.121     0.012    0.0013
   01/01/2000 22:50:00      0.121     0.012    0.0013
   01/01/2000 22:55:00      0.120     0.012    0.0012
   01/01/2000 23:00:00      0.120     0.012    0.0012
   01/01/2000 23:05:00      0.120     0.012    0.0012
   01/01/2000 23:10:00      0.119     0.012    0.0012
   01/01/2000 23:15:00      0.119     0.012    0.0012
   01/01/2000 23:20:00      0.118     0.012    0.0012
   01/01/2000 23:25:00      0.118     0.012    0.0012
   01/01/2000 23:30:00      0.117     0.012    0.0012
   01/01/2000 23:35:00      0.117     0.012    0.0012
   01/01/2000 23:40:00      0.117     0.012    0.0012
   01/01/2000 23:45:00      0.116     0.012    0.0012
   01/01/2000 23:50:00      0.116     0.012    0.0012
   01/01/2000 23:55:00      0.115     0.011    0.0012
   01/02/2000 00:00:00      0.115     0.011    0.0012
  
  
  ************
  Node Results
  ************
  
  <<< Node J3 >>>
  ----------------------------------------------------------------
                           Inflow  Flooding     Depth      Head
  Date        Time            CMS       CMS    meters    meters
  ----------------------------------------------------------------
   01/01/2000 00:05:00      0.000     0.000     0.000    93.000
   01/01/2000 00:10:00      0.000     0.000     0.000    93.000
   01/01/2000 00:15:00      0.000     0.000     0.000    93.000
   01/01/2000 00:20:00      0.000     0.000     0.000    93.000
   01/01/2000 00:25:00      0.000     0.000     0.000    93.000
   01/01/2000 00:30:00      0.000     0.000     0.000    93.000
   01/01/2000 00:35:00      0.000     0.000     0.000    93.000
   01/01/2000 00:40:00      0.000     0.000     0.000    93.000
   01/01/2000 00:45:00      0.000     0.000     0.000    93.000
   01/01/2000 00:50:00      0.000     0.000     0.000    93.000
   01/01/2000 00:55:00      0.000     0.000     0.000    93.000
   01/01/2000 01:00:00      0.000     0.000     0.000    93.000
   01/01/2000 01:05:00      0.000     0.000     0.001    93.001
   01/01/2000 01:10:00      0.000     0.000     0.001    93.001
   01/01/2000 01:15:00      0.000     0.000     0.001    93.001
   01/01/2000 01:20:00      0.000     0.000     0.002    93.002
   01/01/2000 01:25:00      0.000     0.000     0.002    93.002
   01/01/2000 01:30:00      0.000     0.000     0.002    93.002
   01/01/2000 01:35:00      0.000     0.000     0.003    93.003
   01/01/2000 01:40:00      0.000     0.000     0.003    93.003
   01/01/2000 01:45:00      0.000     0.000     0.004    93.004
   01/01/2000 01:50:00      0.000     0.000     0.005    93.005
   01/01/2000 01:55:00      0.000     0.000     0.005    93.005
   01/01/2000 02:00:00      0.000     0.000     0.006    93.006
   01/01/2000 02:05:00      0.000     0.000     0.006    93.006
   01/01/2000 02:10:00      0.000     0.000     0.006    93.006
   01/01/2000 02:15:00      0.000     0.000     0.007    93.007
   01/01/2000 02:20:00      0.000     0.000     0.007    93.007
   01/01/2000 02:25:00      0.000     0.000     0.008    93.008
   01/01/2000 02:30:00      0.000     0.000     0.008    93.008
   01/01/2000 02:35:00      0.000     0.000     0.008    93.008
   01/01/2000 02:40:00      0.000     0.000     0.008    93.008
   01/01/2000 02:45:00      0.000     0.000     0.009    93.009
   01/01/2000 02:50:00      0.001     0.000     0.009    93.009
   01/01/2000 02:55:00      0.001     0.000     0.009    93.009
   01/01/2000 03:00:00      0.001     0.000     0.009    93.009
   01/01/2000 03:05:00      0.001     0.000     0.010    93.010
   01/01/2000 03:10:00      0.001     0.000     0.010    93.010
   01/01/2000 03:15:00      0.001     0.000     0.010    93.010
   01/01/2000 03:20:00      0.001     0.000     0.010    93.010
   01/01/2000 03:25:00      0.001     0.000     0.010    93.010
   01/01/2000 03:30:00      0.001     0.000     0.010    93.010
   01/01/2000 03:35:00      0.001     0.000     0.010    93.010
   01/01/2000 03:40:00      0.001     0.000     0.011    93.011
   01/01/2000 03:45:00      0.001     0.000     0.011    93.011
   01/01/2000 03:50:00      0.001     0.000     0.011    93.011
   01/01/2000 03:55:00      0.001     0.000     0.011    93.011
   01/01/2000 04:00:00      0.001     0.000     0.011    93.011
   01/01/2000 04:05:00      0.001     0.000     0.011    93.011
   01/01/2000 04:10:00      0.001     0.000     0.011    93.011
   01/01/2000 04:15:00      0.001     0.000     0.011    93.011
   01/01/2000 04:20:00      0.001     0.000     0.011    93.011
   01/01/2000 04:25:00      0.001     0.000     0.011    93.011
   01/01/2000 04:30:00      0.001     0.000     0.011    93.011
   01/01/2000 04:35:00      0.001     0.000     0.011    93.011
   01/01/2000 04:40:00      0.001     0.000     0.012    93.012
   01/01/2000 04:45:00      0.001     0.000     0.012    93.012
   01/01/2000 04:50:00      0.001     0.000     0.012    93.012
   01/01/2000 04:55:00      0.001     0.000     0.012    93.012
   01/01/2000 05:00:00      0.001     0.000     0.012    93.012
   01/01/2000 05:05:00      0.001     0.000     0.012    93.012
   01/01/2000 05:10:00      0.001     0.000     0.012    93.012
   01/01/2000 05:15:00      0.001     0.000     0.012    93.012
   01/01/2000 05:20:00      0.001     0.000     0.012    93.012
   01/01/2000 05:25:00      0.001     0.000     0.012    93.012
   01/01/2000 05:30:00      0.001     0.000     0.012    93.012
   01/01/2000 05:35:00      0.001     0.000     0.012    93.012
   01/01/2000 05:40:00      0.001     0.000     0.012    93.012
   01/01/2000 05:45:00      0.001     0.000     0.012    93.012
   01/01/2000 05:50:00      0.001     0.000     0.012    93.012
   01/01/2000 05:55:00      0.001     0.000     0.012    93.012
   01/01/2000 06:00:00      0.001     0.000     0.012    93.012
   01/01/2000 06:05:00      0.001     0.000     0.012    93.012
   01/01/2000 06:10:00      0.001     0.000     0.013    93.013
   01/01/2000 06:15:00      0.001     0.000     0.013    93.013
   01/01/2000 06:20:00      0.001     0.000     0.013    93.013
   01/01/2000 06:25:00      0.001     0.000     0.013    93.013
   01/01/2000 06:30:00      0.001     0.000     0.013    93.013
   01/01/2000 06:35:00      0.001     0.000     0.013    93.013
   01/01/2000 06:40:00      0.001     0.000     0.013    93.013
   01/01/2000 06:45:00      0.001     0.000     0.013    93.013
   01/01/2000 06:50:00      0.001     0.000     0.013    93.013
   01/01/2000 06:55:00      0.001     0.000     0.013    93.013
   01/01/2000 07:00:00      0.001     0.000     0.013    93.013
   01/01/2000 07:05:00      0.001     0.000     0.013    93.013
   01/01/2000 07:10:00      0.001     0.000     0.013    93.013
   01/01/2000 07:15:00      0.001     0.000     0.013    93.013
   01/01/2000 07:20:00      0.001     0.000     0.013    93.013
   01/01/2000 07:25:00      0.001     0.000     0.013    93.013
   01/01/2000 07:30:00      0.001     0.000     0.014    93.014
   01/01/2000 07:35:00      0.001     0.000     0.014    93.014
   01/01/2000 07:40:00      0.001     0.000     0.014    93.014
   01/01/2000 07:45:00      0.001     0.000     0.014    93.014
   01/01/2000 07:50:00      0.001     0.000     0.014    93.014
   01/01/2000 07:55:00      0.001     0.000     0.014    93.014
   01/01/2000 08:00:00      0.001     0.000     0.014    93.014
   01/01/2000 08:05:00      0.001     0.000     0.014    93.014
   01/01/2000 08:10:00      0.001     0.000     0.014    93.014
   01/01/2000 08:15:00      0.001     0.000     0.014    93.014
   01/01/2000 08:20:00      0.001     0.000     0.014    93.014
   01/01/2000 08:25:00      0.001     0.000     0.014    93.014
   01/01/2000 08:30:00      0.001     0.000     0.014    93.014
   01/01/2000 08:35:00      0.001     0.000     0.014    93.014
   01/01/2000 08:40:00      0.001     0.000     0.014    93.014
   01/01/2000 08:45:00      0.001     0.000     0.014    93.014
   01/01/2000 08:50:00      0.001     0.000     0.014    93.014
   01/01/2000 08:55:00      0.001     0.000     0.015    93.015
   01/01/2000 09:00:00      0.001     0.000     0.015    93.015
   01/01/2000 09:05:00      0.001     0.000     0.015    93.015
   01/01/2000 09:10:00      0.001     0.000     0.015    93.015
   01/01/2000 09:15:00      0.002     0.000     0.015    93.015
   01/01/2000 09:20:00      0.002     0.000     0.015    93.015
   01/01/2000 09:25:00      0.002     0.000     0.015    93.015
   01/01/2000 09:30:00      0.002     0.000     0.015    93.015
   01/01/2000 09:35:00      0.002     0.000     0.015    93.015
   01/01/2000 09:40:00      0.002     0.000     0.016    93.016
   01/01/2000 09:45:00      0.002     0.000     0.016    93.016
   01/01/2000 09:50:00      0.002     0.000     0.016    93.016
   01/01/2000 09:55:00      0.002     0.000     0.016    93.016
   01/01/2000 10:00:00      0.002     0.000     0.016    93.016
   01/01/2000 10:05:00      0.002     0.000     0.017    93.017
   01/01/2000 10:10:00      0.002     0.000     0.017    93.017
   01/01/2000 10:15:00      0.002     0.000     0.017    93.017
   01/01/2000 10:20:00      0.002     0.000     0.017    93.017
   01/01/2000 10:25:00      0.002     0.000     0.017    93.017
   01/01/2000 10:30:00      0.002     0.000     0.017    93.017
   01/01/2000 10:35:00      0.002     0.000     0.017    93.017
   01/01/2000 10:40:00      0.002     0.000     0.018    93.018
   01/01/2000 10:45:00      0.002     0.000     0.018    93.018
   01/01/2000 10:50:00      0.002     0.000     0.018    93.018
   01/01/2000 10:55:00      0.002     0.000     0.018    93.018
   01/01/2000 11:00:00      0.002     0.000     0.018    93.018
   01/01/2000 11:05:00      0.002     0.000     0.019    93.019
   01/01/2000 11:10:00      0.003     0.000     0.019    93.019
   01/01/2000 11:15:00      0.003     0.000     0.019    93.019
   01/01/2000 11:20:00      0.003     0.000     0.020    93.020
   01/01/2000 11:25:00      0.003     0.000     0.020    93.020
   01/01/2000 11:30:00      0.003     0.000     0.020    93.020
   01/01/2000 11:35:00      0.003     0.000     0.021    93.021
   01/01/2000 11:40:00      0.003     0.000     0.021    93.021
   01/01/2000 11:45:00      0.003     0.000     0.022    93.022
   01/01/2000 11:50:00      0.004     0.000     0.024    93.024
   01/01/2000 11:55:00      0.005     0.000     0.027    93.027
   01/01/2000 12:00:00      0.006     0.000     0.028    93.028
   01/01/2000 12:05:00      0.006     0.000     0.028    93.028
   01/01/2000 12:10:00      0.007     0.000     0.029    93.029
   01/01/2000 12:15:00      0.007     0.000     0.030    93.030
   01/01/2000 12:20:00      0.008     0.000     0.032    93.032
   01/01/2000 12:25:00      0.008     0.000     0.033    93.033
   01/01/2000 12:30:00      0.009     0.000     0.034    93.034
   01/01/2000 12:35:00      0.013     0.000     0.040    93.040
   01/01/2000 12:40:00      0.021     0.000     0.051    93.051
   01/01/2000 12:45:00      0.037     0.000     0.066    93.066
   01/01/2000 12:50:00      0.065     0.000     0.085    93.085
   01/01/2000 12:55:00      0.099     0.000     0.104    93.104
   01/01/2000 13:00:00      0.102     0.000     0.105    93.105
   01/01/2000 13:05:00      0.068     0.000     0.087    93.087
   01/01/2000 13:10:00      0.049     0.000     0.075    93.075
   01/01/2000 13:15:00      0.037     0.000     0.066    93.066
   01/01/2000 13:20:00      0.029     0.000     0.059    93.059
   01/01/2000 13:25:00      0.024     0.000     0.054    93.054
   01/01/2000 13:30:00      0.020     0.000     0.049    93.049
   01/01/2000 13:35:00      0.017     0.000     0.046    93.046
   01/01/2000 13:40:00      0.015     0.000     0.043    93.043
   01/01/2000 13:45:00      0.013     0.000     0.040    93.040
   01/01/2000 13:50:00      0.012     0.000     0.038    93.038
   01/01/2000 13:55:00      0.011     0.000     0.036    93.036
   01/01/2000 14:00:00      0.010     0.000     0.035    93.035
   01/01/2000 14:05:00      0.009     0.000     0.034    93.034
   01/01/2000 14:10:00      0.008     0.000     0.032    93.032
   01/01/2000 14:15:00      0.008     0.000     0.031    93.031
   01/01/2000 14:20:00      0.007     0.000     0.030    93.030
   01/01/2000 14:25:00      0.007     0.000     0.030    93.030
   01/01/2000 14:30:00      0.006     0.000     0.029    93.029
   01/01/2000 14:35:00      0.006     0.000     0.028    93.028
   01/01/2000 14:40:00      0.006     0.000     0.027    93.027
   01/01/2000 14:45:00      0.005     0.000     0.027    93.027
   01/01/2000 14:50:00      0.005     0.000     0.026    93.026
   01/01/2000 14:55:00      0.005     0.000     0.026    93.026
   01/01/2000 15:00:00      0.005     0.000     0.025    93.025
   01/01/2000 15:05:00      0.005     0.000     0.025    93.025
   01/01/2000 15:10:00      0.004     0.000     0.024    93.024
   01/01/2000 15:15:00      0.004     0.000     0.024    93.024
   01/01/2000 15:20:00      0.004     0.000     0.024    93.024
   01/01/2000 15:25:00      0.004     0.000     0.023    93.023
   01/01/2000 15:30:00      0.004     0.000     0.023    93.023
   01/01/2000 15:35:00      0.004     0.000     0.023    93.023
   01/01/2000 15:40:00      0.004     0.000     0.023    93.023
   01/01/2000 15:45:00      0.004     0.000     0.022    93.022
   01/01/2000 15:50:00      0.004     0.000     0.022    93.022
   01/01/2000 15:55:00      0.003     0.000     0.022    93.022
   01/01/2000 16:00:00      0.003     0.000     0.022    93.022
   01/01/2000 16:05:00      0.003     0.000     0.021    93.021
   01/01/2000 16:10:00      0.003     0.000     0.021    93.021
   01/01/2000 16:15:00      0.003     0.000     0.021    93.021
   01/01/2000 16:20:00      0.003     0.000     0.021    93.021
   01/01/2000 16:25:00      0.003     0.000     0.021    93.021
   01/01/2000 16:30:00      0.003     0.000     0.020    93.020
   01/01/2000 16:35:00      0.003     0.000     0.020    93.020
   01/01/2000 16:40:00      0.003     0.000     0.020    93.020
   01/01/2000 16:45:00      0.003     0.000     0.020    93.020
   01/01/2000 16:50:00      0.003     0.000     0.020    93.020
   01/01/2000 16:55:00      0.003     0.000     0.020    93.020
   01/01/2000 17:00:00      0.003     0.000     0.019    93.019
   01/01/2000 17:05:00      0.003     0.000     0.019    93.019
   01/01/2000 17:10:00      0.003     0.000     0.019    93.019
   01/01/2000 17:15:00      0.003     0.000     0.019    93.019
   01/01/2000 17:20:00      0.002     0.000     0.019    93.019
   01/01/2000 17:25:00      0.002     0.000     0.019    93.019
   01/01/2000 17:30:00      0.002     0.000     0.018    93.018
   01/01/2000 17:35:00      0.002     0.000     0.018    93.018
   01/01/2000 17:40:00      0.002     0.000     0.018    93.018
   01/01/2000 17:45:00      0.002     0.000     0.018    93.018
   01/01/2000 17:50:00      0.002     0.000     0.018    93.018
   01/01/2000 17:55:00      0.002     0.000     0.018    93.018
   01/01/2000 18:00:00      0.002     0.000     0.018    93.018
   01/01/2000 18:05:00      0.002     0.000     0.018    93.018
   01/01/2000 18:10:00      0.002     0.000     0.018    93.018
   01/01/2000 18:15:00      0.002     0.000     0.017    93.017
   01/01/2000 18:20:00      0.002     0.000     0.017    93.017
   01/01/2000 18:25:00      0.002     0.000     0.017    93.017
   01/01/2000 18:30:00      0.002     0.000     0.017    93.017
   01/01/2000 18:35:00      0.002     0.000     0.017    93.017
   01/01/2000 18:40:00      0.002     0.000     0.017    93.017
   01/01/2000 18:45:00      0.002     0.000     0.017    93.017
   01/01/2000 18:50:00      0.002     0.000     0.017    93.017
   01/01/2000 18:55:00      0.002     0.000     0.017    93.017
   01/01/2000 19:00:00      0.002     0.000     0.017    93.017
   01/01/2000 19:05:00      0.002     0.000     0.017    93.017
   01/01/2000 19:10:00      0.002     0.000     0.017    93.017
   01/01/2000 19:15:00      0.002     0.000     0.016    93.016
   01/01/2000 19:20:00      0.002     0.000     0.016    93.016
   01/01/2000 19:25:00      0.002     0.000     0.016    93.016
   01/01/2000 19:30:00      0.002     0.000     0.016    93.016
   01/01/2000 19:35:00      0.002     0.000     0.016    93.016
   01/01/2000 19:40:00      0.002     0.000     0.016    93.016
   01/01/2000 19:45:00      0.002     0.000     0.016    93.016
   01/01/2000 19:50:00      0.002     0.000     0.016    93.016
   01/01/2000 19:55:00      0.002     0.000     0.016    93.016
   01/01/2000 20:00:00      0.002     0.000     0.016    93.016
   01/01/2000 20:05:00      0.002     0.000     0.016    93.016
   01/01/2000 20:10:00      0.002     0.000     0.016    93.016
   01/01/2000 20:15:00      0.002     0.000     0.015    93.015
   01/01/2000 20:20:00      0.002     0.000     0.015    93.015
   01/01/2000 20:25:00      0.002     0.000     0.015    93.015
   01/01/2000 20:30:00      0.002     0.000     0.015    93.015
   01/01/2000 20:35:00      0.002     0.000     0.015    93.015
   01/01/2000 20:40:00      0.002     0.000     0.015    93.015
   01/01/2000 20:45:00      0.002     0.000     0.015    93.015
   01/01/2000 20:50:00      0.002     0.000     0.015    93.015
   01/01/2000 20:55:00      0.001     0.000     0.015    93.015
   01/01/2000 21:00:00      0.001     0.000     0.015    93.015
   01/01/2000 21:05:00      0.001     0.000     0.015    93.015
   01/01/2000 21:10:00      0.001     0.000     0.014    93.014
   01/01/2000 21:15:00      0.001     0.000     0.014    93.014
   01/01/2000 21:20:00      0.001     0.000     0.014    93.014
   01/01/2000 21:25:00      0.001     0.000     0.014    93.014
   01/01/2000 21:30:00      0.001     0.000     0.014    93.014
   01/01/2000 21:35:00      0.001     0.000     0.014    93.014
   01/01/2000 21:40:00      0.001     0.000     0.014    93.014
   01/01/2000 21:45:00      0.001     0.000     0.014    93.014
   01/01/2000 21:50:00      0.001     0.000     0.014    93.014
   01/01/2000 21:55:00      0.001     0.000     0.014    93.014
   01/01/2000 22:00:00      0.001     0.000     0.014    93.014
   01/01/2000 22:05:00      0.001     0.000     0.014    93.014
   01/01/2000 22:10:00      0.001     0.000     0.014    93.014
   01/01/2000 22:15:00      0.001     0.000     0.014    93.014
   01/01/2000 22:20:00      0.001     0.000     0.014    93.014
   01/01/2000 22:25:00      0.001     0.000     0.014    93.014
   01/01/2000 22:30:00      0.001     0.000     0.014    93.014
   01/01/2000 22:35:00      0.001     0.000     0.014    93.014
   01/01/2000 22:40:00      0.001     0.000     0.014    93.014
   01/01/2000 22:45:00      0.001     0.000     0.014    93.014
   01/01/2000 22:50:00      0.001     0.000     0.014    93.014
   01/01/2000 22:55:00      0.001     0.000     0.014    93.014
   01/01/2000 23:00:00      0.001     0.000     0.014    93.014
   01/01/2000 23:05:00      0.001     0.000     0.014    93.014
   01/01/2000 23:10:00      0.001     0.000     0.014    93.014
   01/01/2000 23:15:00      0.001     0.000     0.013    93.013
   01/01/2000 23:20:00      0.001     0.000     0.013    93.013
   01/01/2000 23:25:00      0.001     0.000     0.013    93.013
   01/01/2000 23:30:00      0.001     0.000     0.013    93.013
   01/01/2000 23:35:00      0.001     0.000     0.013    93.013
   01/01/2000 23:40:00      0.001     0.000     0.013    93.013
   01/01/2000 23:45:00      0.001     0.000     0.013    93.013
   01/01/2000 23:50:00      0.001     0.000     0.013    93.013
   01/01/2000 23:55:00      0.001     0.000     0.013    93.013
   01/02/2000 00:00:00      0.001     0.000     0.013    93.013
  
  
  <<< Node J1 >>>
  ----------------------------------------------------------------
                           Inflow  Flooding     Depth      Head
  Date        Time            CMS       CMS    meters    meters
  ----------------------------------------------------------------
   01/01/2000 00:05:00      0.000     0.000     0.000    96.000
   01/01/2000 00:10:00      0.000     0.000     0.000    96.000
   01/01/2000 00:15:00      0.000     0.000     0.000    96.000
   01/01/2000 00:20:00      0.000     0.000     0.000    96.000
   01/01/2000 00:25:00      0.000     0.000     0.000    96.000
   01/01/2000 00:30:00      0.000     0.000     0.000    96.000
   01/01/2000 00:35:00      0.000     0.000     0.000    96.000
   01/01/2000 00:40:00      0.000     0.000     0.000    96.000
   01/01/2000 00:45:00      0.000     0.000     0.000    96.000
   01/01/2000 00:50:00      0.000     0.000     0.000    96.000
   01/01/2000 00:55:00      0.000     0.000     0.000    96.000
   01/01/2000 01:00:00      0.000     0.000     0.000    96.000
   01/01/2000 01:05:00      0.000     0.000     0.001    96.001
   01/01/2000 01:10:00      0.000     0.000     0.001    96.001
   01/01/2000 01:15:00      0.000     0.000     0.002    96.002
   01/01/2000 01:20:00      0.000     0.000     0.002    96.002
   01/01/2000 01:25:00      0.000     0.000     0.003    96.003
   01/01/2000 01:30:00      0.000     0.000     0.003    96.003
   01/01/2000 01:35:00      0.000     0.000     0.003    96.003
   01/01/2000 01:40:00      0.000     0.000     0.004    96.004
   01/01/2000 01:45:00      0.000     0.000     0.005    96.005
   01/01/2000 01:50:00      0.000     0.000     0.005    96.005
   01/01/2000 01:55:00      0.000     0.000     0.006    96.006
   01/01/2000 02:00:00      0.000     0.000     0.006    96.006
   01/01/2000 02:05:00      0.000     0.000     0.007    96.007
   01/01/2000 02:10:00      0.000     0.000     0.007    96.007
   01/01/2000 02:15:00      0.000     0.000     0.008    96.008
   01/01/2000 02:20:00      0.000     0.000     0.008    96.008
   01/01/2000 02:25:00      0.000     0.000     0.008    96.008
   01/01/2000 02:30:00      0.000     0.000     0.009    96.009
   01/01/2000 02:35:00      0.000     0.000     0.009    96.009
   01/01/2000 02:40:00      0.000     0.000     0.009    96.009
   01/01/2000 02:45:00      0.000     0.000     0.009    96.009
   01/01/2000 02:50:00      0.001     0.000     0.010    96.010
   01/01/2000 02:55:00      0.001     0.000     0.010    96.010
   01/01/2000 03:00:00      0.001     0.000     0.010    96.010
   01/01/2000 03:05:00      0.001     0.000     0.010    96.010
   01/01/2000 03:10:00      0.001     0.000     0.010    96.010
   01/01/2000 03:15:00      0.001     0.000     0.010    96.010
   01/01/2000 03:20:00      0.001     0.000     0.010    96.010
   01/01/2000 03:25:00      0.001     0.000     0.010    96.010
   01/01/2000 03:30:00      0.001     0.000     0.010    96.010
   01/01/2000 03:35:00      0.001     0.000     0.011    96.011
   01/01/2000 03:40:00      0.001     0.000     0.011    96.011
   01/01/2000 03:45:00      0.001     0.000     0.011    96.011
   01/01/2000 03:50:00      0.001     0.000     0.011    96.011
   01/01/2000 03:55:00      0.001     0.000     0.011    96.011
   01/01/2000 04:00:00      0.001     0.000     0.011    96.011
   01/01/2000 04:05:00      0.001     0.000     0.011    96.011
   01/01/2000 04:10:00      0.001     0.000     0.011    96.011
   01/01/2000 04:15:00      0.001     0.000     0.011    96.011
   01/01/2000 04:20:00      0.001     0.000     0.011    96.011
   01/01/2000 04:25:00      0.001     0.000     0.011    96.011
   01/01/2000 04:30:00      0.001     0.000     0.011    96.011
   01/01/2000 04:35:00      0.001     0.000     0.011    96.011
   01/01/2000 04:40:00      0.001     0.000     0.011    96.011
   01/01/2000 04:45:00      0.001     0.000     0.011    96.011
   01/01/2000 04:50:00      0.001     0.000     0.011    96.011
   01/01/2000 04:55:00      0.001     0.000     0.011    96.011
   01/01/2000 05:00:00      0.001     0.000     0.011    96.011
   01/01/2000 05:05:00      0.001     0.000     0.011    96.011
   01/01/2000 05:10:00      0.001     0.000     0.011    96.011
   01/01/2000 05:15:00      0.001     0.000     0.011    96.011
   01/01/2000 05:20:00      0.001     0.000     0.011    96.011
   01/01/2000 05:25:00      0.001     0.000     0.012    96.012
   01/01/2000 05:30:00      0.001     0.000     0.012    96.012
   01/01/2000 05:35:00      0.001     0.000     0.012    96.012
   01/01/2000 05:40:00      0.001     0.000     0.012    96.012
   01/01/2000 05:45:00      0.001     0.000     0.012    96.012
[...]
   01/01/2000 22:35:00      0.001     0.330     0.015     0.003
   01/01/2000 22:40:00      0.001     0.329     0.015     0.003
   01/01/2000 22:45:00      0.001     0.329     0.015     0.003
   01/01/2000 22:50:00      0.001     0.328     0.015     0.003
   01/01/2000 22:55:00      0.001     0.328     0.015     0.003
   01/01/2000 23:00:00      0.001     0.327     0.015     0.003
   01/01/2000 23:05:00      0.001     0.327     0.015     0.003
   01/01/2000 23:10:00      0.001     0.326     0.015     0.003
   01/01/2000 23:15:00      0.001     0.326     0.015     0.003
   01/01/2000 23:20:00      0.001     0.325     0.015     0.003
   01/01/2000 23:25:00      0.001     0.325     0.015     0.003
   01/01/2000 23:30:00      0.001     0.324     0.015     0.003
   01/01/2000 23:35:00      0.001     0.324     0.015     0.003
   01/01/2000 23:40:00      0.001     0.324     0.015     0.003
   01/01/2000 23:45:00      0.001     0.323     0.015     0.003
   01/01/2000 23:50:00      0.001     0.323     0.015     0.003
   01/01/2000 23:55:00      0.001     0.322     0.015     0.003
   01/02/2000 00:00:00      0.001     0.322     0.015     0.003
  
  
  <<< Link C1 >>>
  ----------------------------------------------------------------
                             Flow  Velocity     Depth  Capacity/
  Date        Time            CMS     m/sec    meters   Setting 
  ----------------------------------------------------------------
   01/01/2000 00:05:00      0.000     0.000     0.000     0.000
   01/01/2000 00:10:00      0.000     0.000     0.000     0.000
   01/01/2000 00:15:00      0.000     0.000     0.000     0.000
   01/01/2000 00:20:00      0.000     0.000     0.000     0.000
   01/01/2000 00:25:00      0.000     0.000     0.000     0.000
   01/01/2000 00:30:00      0.000     0.000     0.000     0.000
   01/01/2000 00:35:00      0.000     0.000     0.000     0.000
   01/01/2000 00:40:00      0.000     0.000     0.000     0.000
   01/01/2000 00:45:00      0.000     0.000     0.000     0.000
   01/01/2000 00:50:00      0.000     0.000     0.000     0.000
   01/01/2000 00:55:00      0.000     0.000     0.000     0.000
   01/01/2000 01:00:00      0.000     0.000     0.000     0.000
   01/01/2000 01:05:00      0.000     0.000     0.000     0.000
   01/01/2000 01:10:00      0.000     0.000     0.001     0.000
   01/01/2000 01:15:00      0.000     0.000     0.001     0.000
   01/01/2000 01:20:00      0.000     0.000     0.001     0.000
   01/01/2000 01:25:00      0.000     0.000     0.001     0.000
   01/01/2000 01:30:00      0.000     0.000     0.002     0.000
   01/01/2000 01:35:00      0.000     0.000     0.002     0.000
   01/01/2000 01:40:00      0.000     0.000     0.003     0.000
   01/01/2000 01:45:00      0.000     0.044     0.003     0.001
   01/01/2000 01:50:00      0.000     0.071     0.004     0.001
   01/01/2000 01:55:00      0.000     0.103     0.005     0.001
   01/01/2000 02:00:00      0.000     0.139     0.005     0.001
   01/01/2000 02:05:00      0.000     0.173     0.006     0.001
   01/01/2000 02:10:00      0.000     0.205     0.007     0.001
   01/01/2000 02:15:00      0.000     0.233     0.007     0.001
   01/01/2000 02:20:00      0.000     0.258     0.008     0.001
   01/01/2000 02:25:00      0.000     0.279     0.008     0.001
   01/01/2000 02:30:00      0.000     0.298     0.008     0.001
   01/01/2000 02:35:00      0.000     0.314     0.009     0.002
   01/01/2000 02:40:00      0.000     0.328     0.009     0.002
   01/01/2000 02:45:00      0.000     0.340     0.009     0.002
   01/01/2000 02:50:00      0.000     0.350     0.009     0.002
   01/01/2000 02:55:00      0.000     0.359     0.009     0.002
   01/01/2000 03:00:00      0.001     0.367     0.010     0.002
   01/01/2000 03:05:00      0.001     0.374     0.010     0.002
   01/01/2000 03:10:00      0.001     0.380     0.010     0.002
   01/01/2000 03:15:00      0.001     0.386     0.010     0.002
   01/01/2000 03:20:00      0.001     0.391     0.010     0.002
   01/01/2000 03:25:00      0.001     0.395     0.010     0.002
   01/01/2000 03:30:00      0.001     0.399     0.010     0.002
   01/01/2000 03:35:00      0.001     0.402     0.010     0.002
   01/01/2000 03:40:00      0.001     0.405     0.010     0.002
   01/01/2000 03:45:00      0.001     0.408     0.011     0.002
   01/01/2000 03:50:00      0.001     0.411     0.011     0.002
   01/01/2000 03:55:00      0.001     0.413     0.011     0.002
   01/01/2000 04:00:00      0.001     0.415     0.011     0.002
   01/01/2000 04:05:00      0.001     0.417     0.011     0.002
   01/01/2000 04:10:00      0.001     0.419     0.011     0.002
   01/01/2000 04:15:00      0.001     0.421     0.011     0.002
   01/01/2000 04:20:00      0.001     0.423     0.011     0.002
   01/01/2000 04:25:00      0.001     0.424     0.011     0.002
   01/01/2000 04:30:00      0.001     0.426     0.011     0.002
   01/01/2000 04:35:00      0.001     0.427     0.011     0.002
   01/01/2000 04:40:00      0.001     0.429     0.011     0.002
   01/01/2000 04:45:00      0.001     0.430     0.011     0.002
   01/01/2000 04:50:00      0.001     0.432     0.011     0.002
   01/01/2000 04:55:00      0.001     0.433     0.011     0.002
   01/01/2000 05:00:00      0.001     0.434     0.011     0.002
   01/01/2000 05:05:00      0.001     0.435     0.011     0.002
   01/01/2000 05:10:00      0.001     0.436     0.011     0.002
   01/01/2000 05:15:00      0.001     0.438     0.011     0.002
   01/01/2000 05:20:00      0.001     0.439     0.011     0.002
   01/01/2000 05:25:00      0.001     0.440     0.011     0.002
   01/01/2000 05:30:00      0.001     0.442     0.012     0.002
   01/01/2000 05:35:00      0.001     0.443     0.012     0.002
   01/01/2000 05:40:00      0.001     0.445     0.012     0.002
   01/01/2000 05:45:00      0.001     0.447     0.012     0.002
   01/01/2000 05:50:00      0.001     0.448     0.012     0.002
   01/01/2000 05:55:00      0.001     0.450     0.012     0.002
   01/01/2000 06:00:00      0.001     0.452     0.012     0.002
   01/01/2000 06:05:00      0.001     0.454     0.012     0.002
   01/01/2000 06:10:00      0.001     0.456     0.012     0.002
   01/01/2000 06:15:00      0.001     0.458     0.012     0.002
   01/01/2000 06:20:00      0.001     0.460     0.012     0.002
   01/01/2000 06:25:00      0.001     0.462     0.012     0.002
   01/01/2000 06:30:00      0.001     0.464     0.012     0.002
   01/01/2000 06:35:00      0.001     0.466     0.012     0.002
   01/01/2000 06:40:00      0.001     0.468     0.012     0.002
   01/01/2000 06:45:00      0.001     0.470     0.012     0.002
   01/01/2000 06:50:00      0.001     0.472     0.012     0.002
   01/01/2000 06:55:00      0.001     0.474     0.012     0.002
   01/01/2000 07:00:00      0.001     0.476     0.013     0.002
   01/01/2000 07:05:00      0.001     0.478     0.013     0.003
   01/01/2000 07:10:00      0.001     0.480     0.013     0.003
   01/01/2000 07:15:00      0.001     0.481     0.013     0.003
   01/01/2000 07:20:00      0.001     0.483     0.013     0.003
   01/01/2000 07:25:00      0.001     0.485     0.013     0.003
   01/01/2000 07:30:00      0.001     0.487     0.013     0.003
   01/01/2000 07:35:00      0.001     0.489     0.013     0.003
   01/01/2000 07:40:00      0.001     0.491     0.013     0.003
   01/01/2000 07:45:00      0.001     0.493     0.013     0.003
   01/01/2000 07:50:00      0.001     0.494     0.013     0.003
   01/01/2000 07:55:00      0.001     0.496     0.013     0.003
   01/01/2000 08:00:00      0.001     0.498     0.013     0.003
   01/01/2000 08:05:00      0.001     0.500     0.013     0.003
   01/01/2000 08:10:00      0.001     0.501     0.013     0.003
   01/01/2000 08:15:00      0.001     0.503     0.013     0.003
   01/01/2000 08:20:00      0.001     0.505     0.013     0.003
   01/01/2000 08:25:00      0.001     0.507     0.014     0.003
   01/01/2000 08:30:00      0.001     0.508     0.014     0.003
   01/01/2000 08:35:00      0.001     0.510     0.014     0.003
   01/01/2000 08:40:00      0.001     0.512     0.014     0.003
   01/01/2000 08:45:00      0.001     0.513     0.014     0.003
   01/01/2000 08:50:00      0.001     0.515     0.014     0.003
   01/01/2000 08:55:00      0.001     0.517     0.014     0.003
   01/01/2000 09:00:00      0.001     0.518     0.014     0.003
   01/01/2000 09:05:00      0.001     0.519     0.014     0.003
   01/01/2000 09:10:00      0.001     0.520     0.014     0.003
   01/01/2000 09:15:00      0.001     0.522     0.014     0.003
   01/01/2000 09:20:00      0.001     0.524     0.014     0.003
   01/01/2000 09:25:00      0.001     0.528     0.014     0.003
   01/01/2000 09:30:00      0.001     0.532     0.015     0.003
   01/01/2000 09:35:00      0.001     0.537     0.015     0.003
   01/01/2000 09:40:00      0.001     0.542     0.015     0.003
   01/01/2000 09:45:00      0.001     0.548     0.015     0.003
   01/01/2000 09:50:00      0.001     0.553     0.015     0.003
   01/01/2000 09:55:00      0.001     0.560     0.016     0.003
   01/01/2000 10:00:00      0.002     0.566     0.016     0.003
   01/01/2000 10:05:00      0.002     0.573     0.016     0.003
   01/01/2000 10:10:00      0.002     0.580     0.016     0.003
   01/01/2000 10:15:00      0.002     0.586     0.016     0.004
   01/01/2000 10:20:00      0.002     0.591     0.016     0.004
   01/01/2000 10:25:00      0.002     0.595     0.017     0.004
   01/01/2000 10:30:00      0.002     0.598     0.017     0.004
   01/01/2000 10:35:00      0.002     0.599     0.017     0.004
   01/01/2000 10:40:00      0.002     0.600     0.017     0.004
   01/01/2000 10:45:00      0.002     0.602     0.017     0.004
   01/01/2000 10:50:00      0.002     0.605     0.017     0.004
   01/01/2000 10:55:00      0.002     0.610     0.017     0.004
   01/01/2000 11:00:00      0.002     0.615     0.018     0.004
   01/01/2000 11:05:00      0.002     0.621     0.018     0.004
   01/01/2000 11:10:00      0.002     0.627     0.018     0.004
   01/01/2000 11:15:00      0.002     0.634     0.018     0.004
   01/01/2000 11:20:00      0.002     0.642     0.019     0.004
   01/01/2000 11:25:00      0.002     0.651     0.019     0.004
   01/01/2000 11:30:00      0.002     0.661     0.019     0.005
   01/01/2000 11:35:00      0.002     0.670     0.020     0.005
   01/01/2000 11:40:00      0.003     0.677     0.020     0.005
   01/01/2000 11:45:00      0.003     0.685     0.021     0.005
   01/01/2000 11:50:00      0.003     0.695     0.021     0.005
   01/01/2000 11:55:00      0.003     0.706     0.022     0.005
   01/01/2000 12:00:00      0.003     0.717     0.022     0.006
   01/01/2000 12:05:00      0.003     0.726     0.023     0.006
   01/01/2000 12:10:00      0.004     0.736     0.024     0.006
   01/01/2000 12:15:00      0.004     0.750     0.025     0.007
   01/01/2000 12:20:00      0.004     0.768     0.026     0.007
   01/01/2000 12:25:00      0.005     0.789     0.027     0.007
   01/01/2000 12:30:00      0.005     0.811     0.028     0.008
   01/01/2000 12:35:00      0.006     0.782     0.032     0.010
   01/01/2000 12:40:00      0.009     0.835     0.040     0.014
   01/01/2000 12:45:00      0.017     1.031     0.054     0.021
   01/01/2000 12:50:00      0.032     1.266     0.071     0.032
   01/01/2000 12:55:00      0.064     1.757     0.092     0.046
   01/01/2000 13:00:00      0.072     1.905     0.095     0.048
   01/01/2000 13:05:00      0.058     1.902     0.082     0.039
   01/01/2000 13:10:00      0.042     1.683     0.071     0.031
   01/01/2000 13:15:00      0.032     1.544     0.063     0.027
   01/01/2000 13:20:00      0.027     1.449     0.058     0.023
   01/01/2000 13:25:00      0.023     1.370     0.054     0.021
   01/01/2000 13:30:00      0.020     1.308     0.050     0.019
   01/01/2000 13:35:00      0.017     1.251     0.047     0.017
   01/01/2000 13:40:00      0.015     1.202     0.045     0.016
   01/01/2000 13:45:00      0.013     1.164     0.042     0.015
   01/01/2000 13:50:00      0.012     1.133     0.040     0.014
   01/01/2000 13:55:00      0.011     1.101     0.039     0.013
   01/01/2000 14:00:00      0.010     1.071     0.037     0.012
   01/01/2000 14:05:00      0.009     1.041     0.036     0.011
   01/01/2000 14:10:00      0.008     1.012     0.034     0.011
   01/01/2000 14:15:00      0.008     0.986     0.033     0.010
   01/01/2000 14:20:00      0.007     0.963     0.032     0.010
   01/01/2000 14:25:00      0.007     0.941     0.031     0.009
   01/01/2000 14:30:00      0.006     0.920     0.030     0.009
   01/01/2000 14:35:00      0.006     0.900     0.029     0.008
   01/01/2000 14:40:00      0.005     0.880     0.028     0.008
   01/01/2000 14:45:00      0.005     0.862     0.027     0.007
   01/01/2000 14:50:00      0.005     0.844     0.026     0.007
   01/01/2000 14:55:00      0.004     0.828     0.025     0.007
   01/01/2000 15:00:00      0.004     0.812     0.024     0.006
   01/01/2000 15:05:00      0.004     0.796     0.024     0.006
   01/01/2000 15:10:00      0.004     0.781     0.023     0.006
   01/01/2000 15:15:00      0.003     0.766     0.022     0.006
   01/01/2000 15:20:00      0.003     0.753     0.022     0.005
   01/01/2000 15:25:00      0.003     0.741     0.021     0.005
   01/01/2000 15:30:00      0.003     0.730     0.021     0.005
   01/01/2000 15:35:00      0.003     0.719     0.020     0.005
   01/01/2000 15:40:00      0.003     0.707     0.020     0.005
   01/01/2000 15:45:00      0.002     0.695     0.019     0.004
   01/01/2000 15:50:00      0.002     0.683     0.019     0.004
   01/01/2000 15:55:00      0.002     0.672     0.018     0.004
   01/01/2000 16:00:00      0.002     0.662     0.018     0.004
   01/01/2000 16:05:00      0.002     0.651     0.018     0.004
   01/01/2000 16:10:00      0.002     0.641     0.017     0.004
   01/01/2000 16:15:00      0.002     0.632     0.017     0.004
   01/01/2000 16:20:00      0.002     0.623     0.017     0.004
   01/01/2000 16:25:00      0.002     0.614     0.017     0.004
   01/01/2000 16:30:00      0.002     0.606     0.016     0.004
   01/01/2000 16:35:00      0.002     0.599     0.016     0.003
   01/01/2000 16:40:00      0.002     0.594     0.016     0.003
   01/01/2000 16:45:00      0.002     0.589     0.016     0.003
   01/01/2000 16:50:00      0.002     0.585     0.016     0.003
   01/01/2000 16:55:00      0.002     0.581     0.016     0.003
   01/01/2000 17:00:00      0.001     0.576     0.015     0.003
   01/01/2000 17:05:00      0.001     0.572     0.015     0.003
   01/01/2000 17:10:00      0.001     0.567     0.015     0.003
   01/01/2000 17:15:00      0.001     0.562     0.015     0.003
   01/01/2000 17:20:00      0.001     0.558     0.015     0.003
   01/01/2000 17:25:00      0.001     0.554     0.015     0.003
   01/01/2000 17:30:00      0.001     0.551     0.015     0.003
   01/01/2000 17:35:00      0.001     0.548     0.015     0.003
   01/01/2000 17:40:00      0.001     0.545     0.014     0.003
   01/01/2000 17:45:00      0.001     0.542     0.014     0.003
   01/01/2000 17:50:00      0.001     0.540     0.014     0.003
   01/01/2000 17:55:00      0.001     0.537     0.014     0.003
   01/01/2000 18:00:00      0.001     0.535     0.014     0.003
   01/01/2000 18:05:00      0.001     0.533     0.014     0.003
   01/01/2000 18:10:00      0.001     0.531     0.014     0.003
   01/01/2000 18:15:00      0.001     0.528     0.014     0.003
   01/01/2000 18:20:00      0.001     0.526     0.014     0.003
   01/01/2000 18:25:00      0.001     0.524     0.014     0.003
   01/01/2000 18:30:00      0.001     0.522     0.014     0.003
   01/01/2000 18:35:00      0.001     0.520     0.014     0.003
   01/01/2000 18:40:00      0.001     0.518     0.014     0.003
   01/01/2000 18:45:00      0.001     0.516     0.014     0.003
   01/01/2000 18:50:00      0.001     0.514     0.013     0.003
   01/01/2000 18:55:00      0.001     0.512     0.013     0.003
   01/01/2000 19:00:00      0.001     0.510     0.013     0.003
   01/01/2000 19:05:00      0.001     0.508     0.013     0.003
   01/01/2000 19:10:00      0.001     0.506     0.013     0.003
   01/01/2000 19:15:00      0.001     0.504     0.013     0.003
   01/01/2000 19:20:00      0.001     0.502     0.013     0.003
   01/01/2000 19:25:00      0.001     0.500     0.013     0.003
   01/01/2000 19:30:00      0.001     0.497     0.013     0.003
   01/01/2000 19:35:00      0.001     0.495     0.013     0.003
   01/01/2000 19:40:00      0.001     0.493     0.013     0.003
   01/01/2000 19:45:00      0.001     0.491     0.013     0.003
   01/01/2000 19:50:00      0.001     0.489     0.013     0.003
   01/01/2000 19:55:00      0.001     0.487     0.013     0.003
   01/01/2000 20:00:00      0.001     0.485     0.013     0.002
   01/01/2000 20:05:00      0.001     0.482     0.012     0.002
   01/01/2000 20:10:00      0.001     0.480     0.012     0.002
   01/01/2000 20:15:00      0.001     0.478     0.012     0.002
   01/01/2000 20:20:00      0.001     0.476     0.012     0.002
   01/01/2000 20:25:00      0.001     0.474     0.012     0.002
   01/01/2000 20:30:00      0.001     0.471     0.012     0.002
   01/01/2000 20:35:00      0.001     0.469     0.012     0.002
   01/01/2000 20:40:00      0.001     0.467     0.012     0.002
   01/01/2000 20:45:00      0.001     0.464     0.012     0.002
   01/01/2000 20:50:00      0.001     0.462     0.012     0.002
   01/01/2000 20:55:00      0.001     0.459     0.012     0.002
   01/01/2000 21:00:00      0.001     0.457     0.012     0.002
   01/01/2000 21:05:00      0.001     0.454     0.012     0.002
   01/01/2000 21:10:00      0.001     0.452     0.012     0.002
   01/01/2000 21:15:00      0.001     0.449     0.011     0.002
   01/01/2000 21:20:00      0.001     0.447     0.011     0.002
   01/01/2000 21:25:00      0.001     0.445     0.011     0.002
   01/01/2000 21:30:00      0.001     0.443     0.011     0.002
   01/01/2000 21:35:00      0.001     0.441     0.011     0.002
   01/01/2000 21:40:00      0.001     0.439     0.011     0.002
   01/01/2000 21:45:00      0.001     0.438     0.011     0.002
   01/01/2000 21:50:00      0.001     0.437     0.011     0.002
   01/01/2000 21:55:00      0.001     0.435     0.011     0.002
   01/01/2000 22:00:00      0.001     0.434     0.011     0.002
   01/01/2000 22:05:00      0.001     0.433     0.011     0.002
   01/01/2000 22:10:00      0.001     0.432     0.011     0.002
   01/01/2000 22:15:00      0.001     0.432     0.011     0.002
   01/01/2000 22:20:00      0.001     0.431     0.011     0.002
   01/01/2000 22:25:00      0.001     0.430     0.011     0.002
   01/01/2000 22:30:00      0.001     0.429     0.011     0.002
   01/01/2000 22:35:00      0.001     0.428     0.011     0.002
   01/01/2000 22:40:00      0.001     0.428     0.011     0.002
   01/01/2000 22:45:00      0.001     0.427     0.011     0.002
   01/01/2000 22:50:00      0.001     0.426     0.011     0.002
   01/01/2000 22:55:00      0.001     0.426     0.011     0.002
   01/01/2000 23:00:00      0.001     0.425     0.011     0.002
   01/01/2000 23:05:00      0.001     0.424     0.011     0.002
   01/01/2000 23:10:00      0.001     0.424     0.011     0.002
   01/01/2000 23:15:00      0.001     0.423     0.011     0.002
   01/01/2000 23:20:00      0.001     0.422     0.011     0.002
   01/01/2000 23:25:00      0.001     0.422     0.011     0.002
   01/01/2000 23:30:00      0.001     0.421     0.011     0.002
   01/01/2000 23:35:00      0.001     0.421     0.011     0.002
   01/01/2000 23:40:00      0.001     0.420     0.011     0.002
   01/01/2000 23:45:00      0.001     0.419     0.011     0.002
   01/01/2000 23:50:00      0.001     0.419     0.011     0.002
   01/01/2000 23:55:00      0.001     0.418     0.011     0.002
   01/02/2000 00:00:00      0.001     0.418     0.011     0.002
  

  Analysis begun on:  Thu Dec 12 11:25:41 2019
  Analysis ended on:  Thu Dec 12 11:25:41 2019
  Total elapsed time: < 1 sec