
  EPA STORM WATER MANAGEMENT MODEL - VERSION 5.1 (Build 5.1.013)
  --------------------------------------------------------------

  Scenario Run: BASE 
  
  
  *********************
  Rainfall File Summary
  *********************
  Station    First        Last         Recording   Periods    Periods    Periods
  ID         Date         Date         Frequency  w/Precip    Missing    Malfunc.
  -------------------------------------------------------------------------------
  rg_1       01/01/2000   01/02/2000      60 min       241          0          0

  
  *********************************************************
  NOTE: The summary statistics displayed in this report are
  based on results found at every computational time step,  
  not just on results from each reporting time step.
  *********************************************************
  
  ****************
  Analysis Options
  ****************
  Flow Units ............... CMS
  Process Models:
    Rainfall/Runoff ........ YES
    RDII ................... NO
    Snowmelt ............... NO
    Groundwater ............ NO
    Flow Routing ........... YES
    Ponding Allowed ........ NO
    Water Quality .......... NO
  Infiltration Method ...... MODIFIED_GREEN_AMPT
  Flow Routing Method ...... KINWAVE
  Starting Date ............ 01/01/2000 00:00:00
  Ending Date .............. 01/02/2000 00:00:00
  Antecedent Dry Days ...... 5.0
  Report Time Step ......... 00:05:00
  Wet Time Step ............ 00:15:00
  Dry Time Step ............ 01:00:00
  Routing Time Step ........ 60.00 sec
  
  
  **************************        Volume         Depth
  Runoff Quantity Continuity     hectare-m            mm
  **************************     ---------       -------
  Total Precipitation ......         0.119         9.888
  Evaporation Loss .........         0.000         0.000
  Infiltration Loss ........         0.004         0.313
  Surface Runoff ...........         0.111         9.238
  Final Storage ............         0.004         0.365
  Continuity Error (%) .....        -0.289
  
  
  **************************        Volume        Volume
  Flow Routing Continuity        hectare-m      10^6 ltr
  **************************     ---------     ---------
  Dry Weather Inflow .......         0.000         0.000
  Wet Weather Inflow .......         0.111         1.108
  Groundwater Inflow .......         0.000         0.000
  RDII Inflow ..............         0.000         0.000
  External Inflow ..........         0.000         0.000
  External Outflow .........         0.109         1.090
  Flooding Loss ............         0.000         0.000
  Evaporation Loss .........         0.000         0.000
  Exfiltration Loss ........         0.000         0.000
  Initial Stored Volume ....         0.000         0.000
  Final Stored Volume ......         0.001         0.008
  Continuity Error (%) .....         0.887
  
  
  ********************************
  Highest Flow Instability Indexes
  ********************************
  All links are stable.
  
  
  *************************
  Routing Time Step Summary
  *************************
  Minimum Time Step           :    60.00 sec
  Average Time Step           :    60.00 sec
  Maximum Time Step           :    60.00 sec
  Percent in Steady State     :     0.00
  Average Iterations per Step :     1.06
  Percent Not Converging      :     0.00
  
  
  ***************************
  Subcatchment Runoff Summary
  ***************************
  
  ------------------------------------------------------------------------------------------------------------------------------
                            Total      Total      Total      Total     Imperv       Perv      Total       Total     Peak  Runoff
                           Precip      Runon       Evap      Infil     Runoff     Runoff     Runoff      Runoff   Runoff   Coeff
  Subcatchment                 mm         mm         mm         mm         mm         mm         mm    10^6 ltr      CMS
  ------------------------------------------------------------------------------------------------------------------------------
  S1                         9.89       0.00       0.00       0.08       6.78       2.93       9.71        0.39     0.13   0.982
  S2                         9.89       0.00       0.00       0.76       0.69       8.16       8.85        0.35     0.08   0.895
  S3                         9.89       0.00       0.00       0.10       9.59       0.06       9.15        0.37     0.10   0.926
  

  ***********************
  LID Performance Summary
  ***********************

  --------------------------------------------------------------------------------------------------------------------
                                         Total      Evap     Infil   Surface    Drain    Initial     Final  Continuity
                                        Inflow      Loss      Loss   Outflow   Outflow   Storage   Storage       Error
  Subcatchment      LID Control             mm        mm        mm        mm        mm        mm        mm           %
  --------------------------------------------------------------------------------------------------------------------
  S3                rb                 5762.71      0.00      0.00   4762.71      0.00      0.00   1000.00       -0.00
  
  ******************
  Node Depth Summary
  ******************
  
  ---------------------------------------------------------------------------------
                                 Average  Maximum  Maximum  Time of Max    Reported
                                   Depth    Depth      HGL   Occurrence   Max Depth
  Node                 Type       Meters   Meters   Meters  days hr:min      Meters
  ---------------------------------------------------------------------------------
  J3                   JUNCTION     0.02     0.11    93.11     0  13:00        0.11
  J1                   JUNCTION     0.01     0.05    96.05     0  12:54        0.05
  J4                   JUNCTION     0.04     0.26    88.26     0  13:02        0.25
  J2                   JUNCTION     0.04     0.26    90.26     0  12:55        0.26
  OUT1                 OUTFALL      0.04     0.23    85.23     0  13:04        0.23
  
  
  *******************
  Node Inflow Summary
  *******************
  
  -------------------------------------------------------------------------------------------------
                                  Maximum  Maximum                  Lateral       Total        Flow
                                  Lateral    Total  Time of Max      Inflow      Inflow     Balance
                                   Inflow   Inflow   Occurrence      Volume      Volume       Error
  Node                 Type           CMS      CMS  days hr:min    10^6 ltr    10^6 ltr     Percent
  -------------------------------------------------------------------------------------------------
  J3                   JUNCTION     0.100    0.100     0  13:00       0.366       0.366       0.000
  J1                   JUNCTION     0.128    0.128     0  12:54       0.388       0.388       0.000
  J4                   JUNCTION     0.000    0.295     0  13:01           0         1.1       0.000
  J2                   JUNCTION     0.083    0.203     0  12:55       0.354       0.742       0.000
  OUT1                 OUTFALL      0.000    0.283     0  13:04           0        1.09       0.000
  
  
  *********************
  Node Flooding Summary
  *********************
  
  No nodes were flooded.
  
  
  ***********************
  Outfall Loading Summary
  ***********************
  
  -----------------------------------------------------------
                         Flow       Avg       Max       Total
                         Freq      Flow      Flow      Volume
  Outfall Node           Pcnt       CMS       CMS    10^6 ltr
  -----------------------------------------------------------
  OUT1                  90.69     0.014     0.283       1.090
  -----------------------------------------------------------
  System                90.69     0.014     0.283       1.090
  
  
  ********************
  Link Flow Summary
  ********************
  
  -----------------------------------------------------------------------------
                                 Maximum  Time of Max   Maximum    Max/    Max/
                                  |Flow|   Occurrence   |Veloc|    Full    Full
  Link                 Type          CMS  days hr:min     m/sec    Flow   Depth
  -----------------------------------------------------------------------------
  C3                   CONDUIT     0.100     0  13:01      1.88    0.01    0.07
  C4                   CONDUIT     0.283     0  13:04      1.49    0.03    0.11
  C2                   CONDUIT     0.196     0  13:02      1.33    0.14    0.25
  C1                   CONDUIT     0.127     0  12:55      9.34    0.00    0.05
  
  
  *************************
  Conduit Surcharge Summary
  *************************
  
  No conduits were surcharged.
  
  
  ********************
  Subcatchment Results
  ********************
  
  <<< Subcatchment S1 >>>
  ---------------------------------------------------
  Date        Time        Precip.    Losses    Runoff
                            mm/hr     mm/hr       CMS
  ---------------------------------------------------
   01/01/2000 00:05:00      0.000     0.000    0.0000
   01/01/2000 00:10:00      0.000     0.000    0.0000
   01/01/2000 00:15:00      0.000     0.000    0.0000
   01/01/2000 00:20:00      0.000     0.000    0.0000
   01/01/2000 00:25:00      0.000     0.000    0.0000
   01/01/2000 00:30:00      0.000     0.000    0.0000
   01/01/2000 00:35:00      0.000     0.000    0.0000
   01/01/2000 00:40:00      0.000     0.000    0.0000
   01/01/2000 00:45:00      0.000     0.000    0.0000
   01/01/2000 00:50:00      0.000     0.000    0.0000
   01/01/2000 00:55:00      0.000     0.000    0.0000
   01/01/2000 01:00:00      0.101     0.000    0.0000
   01/01/2000 01:05:00      0.101     0.031    0.0000
   01/01/2000 01:10:00      0.101     0.031    0.0000
   01/01/2000 01:15:00      0.103     0.031    0.0000
   01/01/2000 01:20:00      0.103     0.031    0.0000
   01/01/2000 01:25:00      0.105     0.032    0.0000
   01/01/2000 01:30:00      0.105     0.032    0.0000
   01/01/2000 01:35:00      0.105     0.032    0.0000
   01/01/2000 01:40:00      0.107     0.027    0.0000
   01/01/2000 01:45:00      0.107     0.024    0.0000
   01/01/2000 01:50:00      0.109     0.022    0.0000
   01/01/2000 01:55:00      0.109     0.020    0.0000
   01/01/2000 02:00:00      0.111     0.019    0.0000
   01/01/2000 02:05:00      0.111     0.019    0.0000
   01/01/2000 02:10:00      0.111     0.017    0.0003
   01/01/2000 02:15:00      0.113     0.016    0.0004
   01/01/2000 02:20:00      0.113     0.016    0.0004
   01/01/2000 02:25:00      0.115     0.015    0.0005
   01/01/2000 02:30:00      0.115     0.015    0.0006
   01/01/2000 02:35:00      0.115     0.014    0.0007
   01/01/2000 02:40:00      0.117     0.014    0.0008
   01/01/2000 02:45:00      0.117     0.013    0.0008
   01/01/2000 02:50:00      0.119     0.013    0.0009
   01/01/2000 02:55:00      0.119     0.013    0.0009
   01/01/2000 03:00:00      0.121     0.013    0.0010
   01/01/2000 03:05:00      0.121     0.012    0.0010
   01/01/2000 03:10:00      0.121     0.012    0.0010
   01/01/2000 03:15:00      0.123     0.012    0.0011
   01/01/2000 03:20:00      0.123     0.011    0.0011
   01/01/2000 03:25:00      0.125     0.011    0.0011
   01/01/2000 03:30:00      0.125     0.011    0.0011
   01/01/2000 03:35:00      0.125     0.011    0.0012
   01/01/2000 03:40:00      0.127     0.011    0.0012
   01/01/2000 03:45:00      0.127     0.011    0.0012
   01/01/2000 03:50:00      0.129     0.010    0.0012
   01/01/2000 03:55:00      0.129     0.010    0.0012
   01/01/2000 04:00:00      0.131     0.010    0.0012
   01/01/2000 04:05:00      0.131     0.010    0.0013
   01/01/2000 04:10:00      0.131     0.010    0.0013
   01/01/2000 04:15:00      0.133     0.010    0.0013
   01/01/2000 04:20:00      0.133     0.010    0.0013
   01/01/2000 04:25:00      0.135     0.009    0.0013
   01/01/2000 04:30:00      0.135     0.009    0.0013
   01/01/2000 04:35:00      0.135     0.001    0.0014
   01/01/2000 04:40:00      0.137     0.001    0.0014
   01/01/2000 04:45:00      0.137     0.001    0.0015
   01/01/2000 04:50:00      0.139     0.001    0.0015
   01/01/2000 04:55:00      0.139     0.001    0.0015
   01/01/2000 05:00:00      0.141     0.001    0.0015
   01/01/2000 05:05:00      0.141     0.001    0.0015
   01/01/2000 05:10:00      0.143     0.001    0.0015
   01/01/2000 05:15:00      0.145     0.001    0.0015
   01/01/2000 05:20:00      0.147     0.001    0.0015
   01/01/2000 05:25:00      0.149     0.001    0.0016
   01/01/2000 05:30:00      0.151     0.001    0.0016
   01/01/2000 05:35:00      0.153     0.001    0.0016
   01/01/2000 05:40:00      0.153     0.001    0.0016
   01/01/2000 05:45:00      0.155     0.001    0.0016
   01/01/2000 05:50:00      0.157     0.001    0.0017
   01/01/2000 05:55:00      0.159     0.001    0.0017
   01/01/2000 06:00:00      0.161     0.001    0.0017
   01/01/2000 06:05:00      0.163     0.001    0.0017
   01/01/2000 06:10:00      0.163     0.001    0.0017
   01/01/2000 06:15:00      0.165     0.001    0.0017
   01/01/2000 06:20:00      0.167     0.001    0.0018
   01/01/2000 06:25:00      0.169     0.001    0.0018
   01/01/2000 06:30:00      0.171     0.001    0.0018
   01/01/2000 06:35:00      0.173     0.001    0.0018
   01/01/2000 06:40:00      0.173     0.001    0.0018
   01/01/2000 06:45:00      0.175     0.001    0.0019
   01/01/2000 06:50:00      0.177     0.001    0.0019
   01/01/2000 06:55:00      0.179     0.001    0.0019
   01/01/2000 07:00:00      0.181     0.001    0.0019
   01/01/2000 07:05:00      0.183     0.001    0.0019
   01/01/2000 07:10:00      0.183     0.001    0.0019
   01/01/2000 07:15:00      0.185     0.001    0.0020
   01/01/2000 07:20:00      0.187     0.001    0.0020
   01/01/2000 07:25:00      0.189     0.001    0.0020
   01/01/2000 07:30:00      0.191     0.001    0.0020
   01/01/2000 07:35:00      0.193     0.001    0.0020
   01/01/2000 07:40:00      0.193     0.001    0.0021
   01/01/2000 07:45:00      0.195     0.001    0.0021
   01/01/2000 07:50:00      0.197     0.001    0.0021
   01/01/2000 07:55:00      0.199     0.001    0.0021
   01/01/2000 08:00:00      0.201     0.001    0.0021
   01/01/2000 08:05:00      0.203     0.001    0.0022
   01/01/2000 08:10:00      0.203     0.001    0.0022
   01/01/2000 08:15:00      0.205     0.001    0.0022
   01/01/2000 08:20:00      0.207     0.001    0.0022
   01/01/2000 08:25:00      0.209     0.001    0.0022
   01/01/2000 08:30:00      0.211     0.001    0.0022
   01/01/2000 08:35:00      0.213     0.001    0.0023
   01/01/2000 08:40:00      0.213     0.001    0.0023
   01/01/2000 08:45:00      0.215     0.001    0.0023
   01/01/2000 08:50:00      0.217     0.001    0.0023
   01/01/2000 08:55:00      0.219     0.001    0.0023
   01/01/2000 09:00:00      0.225     0.001    0.0024
   01/01/2000 09:05:00      0.235     0.001    0.0024
   01/01/2000 09:10:00      0.235     0.001    0.0024
   01/01/2000 09:15:00      0.245     0.001    0.0025
   01/01/2000 09:20:00      0.255     0.001    0.0026
   01/01/2000 09:25:00      0.265     0.001    0.0026
   01/01/2000 09:30:00      0.275     0.001    0.0027
   01/01/2000 09:35:00      0.285     0.001    0.0028
   01/01/2000 09:40:00      0.285     0.001    0.0029
   01/01/2000 09:45:00      0.295     0.001    0.0030
   01/01/2000 09:50:00      0.305     0.001    0.0031
   01/01/2000 09:55:00      0.315     0.001    0.0031
   01/01/2000 10:00:00      0.320     0.001    0.0032
   01/01/2000 10:05:00      0.320     0.001    0.0033
   01/01/2000 10:10:00      0.320     0.001    0.0034
   01/01/2000 10:15:00      0.320     0.001    0.0034
   01/01/2000 10:20:00      0.320     0.001    0.0034
   01/01/2000 10:25:00      0.320     0.001    0.0034
   01/01/2000 10:30:00      0.328     0.001    0.0035
   01/01/2000 10:35:00      0.344     0.001    0.0035
   01/01/2000 10:40:00      0.344     0.001    0.0036
   01/01/2000 10:45:00      0.360     0.001    0.0037
   01/01/2000 10:50:00      0.376     0.001    0.0038
   01/01/2000 10:55:00      0.392     0.001    0.0039
   01/01/2000 11:00:00      0.412     0.001    0.0041
   01/01/2000 11:05:00      0.436     0.001    0.0042
   01/01/2000 11:10:00      0.436     0.001    0.0044
   01/01/2000 11:15:00      0.460     0.001    0.0046
   01/01/2000 11:20:00      0.484     0.001    0.0048
   01/01/2000 11:25:00      0.508     0.001    0.0050
   01/01/2000 11:30:00      0.540     0.001    0.0052
   01/01/2000 11:35:00      0.580     0.001    0.0054
   01/01/2000 11:40:00      0.580     0.001    0.0057
   01/01/2000 11:45:00      0.620     0.001    0.0061
   01/01/2000 11:50:00      0.660     0.001    0.0064
   01/01/2000 11:55:00      0.700     0.001    0.0067
   01/01/2000 12:00:00      0.768     0.001    0.0071
   01/01/2000 12:05:00      0.864     0.001    0.0076
   01/01/2000 12:10:00      0.864     0.001    0.0083
   01/01/2000 12:15:00      0.960     0.001    0.0090
   01/01/2000 12:20:00      1.056     0.001    0.0098
   01/01/2000 12:25:00      1.152     0.001    0.0107
   01/01/2000 12:30:00      2.384     0.001    0.0127
   01/01/2000 12:35:00      4.752     0.001    0.0193
   01/01/2000 12:40:00      4.752     0.001    0.0353
   01/01/2000 12:45:00      7.643     0.001    0.0579
   01/01/2000 12:50:00     13.707     0.001    0.0978
   01/01/2000 12:55:00      9.514     0.001    0.1216
   01/01/2000 13:00:00      1.896     0.001    0.0982
   01/01/2000 13:05:00      1.668     0.001    0.0465
   01/01/2000 13:10:00      1.668     0.001    0.0339
   01/01/2000 13:15:00      1.440     0.001    0.0263
   01/01/2000 13:20:00      1.212     0.001    0.0213
   01/01/2000 13:25:00      0.984     0.001    0.0177
   01/01/2000 13:30:00      0.844     0.001    0.0148
   01/01/2000 13:35:00      0.792     0.001    0.0127
   01/01/2000 13:40:00      0.792     0.001    0.0114
   01/01/2000 13:45:00      0.740     0.001    0.0104
   01/01/2000 13:50:00      0.688     0.001    0.0096
   01/01/2000 13:55:00      0.636     0.001    0.0089
   01/01/2000 14:00:00      0.596     0.001    0.0082
   01/01/2000 14:05:00      0.568     0.001    0.0077
   01/01/2000 14:10:00      0.568     0.001    0.0073
   01/01/2000 14:15:00      0.540     0.001    0.0069
   01/01/2000 14:20:00      0.512     0.001    0.0066
   01/01/2000 14:25:00      0.484     0.001    0.0063
   01/01/2000 14:30:00      0.460     0.001    0.0060
   01/01/2000 14:35:00      0.440     0.001    0.0057
   01/01/2000 14:40:00      0.440     0.001    0.0055
   01/01/2000 14:45:00      0.420     0.001    0.0053
   01/01/2000 14:50:00      0.400     0.001    0.0051
   01/01/2000 14:55:00      0.380     0.001    0.0049
   01/01/2000 15:00:00      0.367     0.001    0.0047
   01/01/2000 15:05:00      0.359     0.001    0.0045
   01/01/2000 15:10:00      0.359     0.001    0.0044
   01/01/2000 15:15:00      0.353     0.001    0.0043
   01/01/2000 15:20:00      0.345     0.001    0.0042
   01/01/2000 15:25:00      0.339     0.001    0.0041
   01/01/2000 15:30:00      0.331     0.001    0.0040
   01/01/2000 15:35:00      0.325     0.001    0.0039
   01/01/2000 15:40:00      0.325     0.001    0.0038
   01/01/2000 15:45:00      0.317     0.001    0.0038
   01/01/2000 15:50:00      0.311     0.001    0.0037
   01/01/2000 15:55:00      0.303     0.001    0.0036
   01/01/2000 16:00:00      0.297     0.001    0.0035
   01/01/2000 16:05:00      0.289     0.001    0.0035
   01/01/2000 16:10:00      0.289     0.001    0.0034
   01/01/2000 16:15:00      0.283     0.001    0.0033
   01/01/2000 16:20:00      0.275     0.001    0.0033
   01/01/2000 16:25:00      0.269     0.001    0.0032
   01/01/2000 16:30:00      0.261     0.001    0.0032
   01/01/2000 16:35:00      0.255     0.001    0.0031
   01/01/2000 16:40:00      0.255     0.001    0.0030
   01/01/2000 16:45:00      0.247     0.001    0.0030
   01/01/2000 16:50:00      0.241     0.001    0.0029
   01/01/2000 16:55:00      0.233     0.001    0.0028
   01/01/2000 17:00:00      0.229     0.001    0.0028
   01/01/2000 17:05:00      0.226     0.001    0.0027
   01/01/2000 17:10:00      0.226     0.001    0.0027
   01/01/2000 17:15:00      0.224     0.001    0.0026
   01/01/2000 17:20:00      0.221     0.001    0.0026
   01/01/2000 17:25:00      0.219     0.001    0.0026
   01/01/2000 17:30:00      0.216     0.001    0.0025
   01/01/2000 17:35:00      0.214     0.001    0.0025
   01/01/2000 17:40:00      0.214     0.001    0.0025
   01/01/2000 17:45:00      0.211     0.001    0.0024
   01/01/2000 17:50:00      0.209     0.001    0.0024
   01/01/2000 17:55:00      0.206     0.001    0.0024
   01/01/2000 18:00:00      0.204     0.001    0.0024
   01/01/2000 18:05:00      0.201     0.001    0.0023
   01/01/2000 18:10:00      0.201     0.001    0.0023
   01/01/2000 18:15:00      0.199     0.001    0.0023
   01/01/2000 18:20:00      0.196     0.001    0.0023
   01/01/2000 18:25:00      0.194     0.001    0.0022
   01/01/2000 18:30:00      0.191     0.001    0.0022
   01/01/2000 18:35:00      0.189     0.001    0.0022
   01/01/2000 18:40:00      0.189     0.001    0.0022
   01/01/2000 18:45:00      0.186     0.001    0.0022
   01/01/2000 18:50:00      0.184     0.001    0.0021
   01/01/2000 18:55:00      0.181     0.001    0.0021
   01/01/2000 19:00:00      0.179     0.001    0.0021
   01/01/2000 19:05:00      0.176     0.001    0.0021
   01/01/2000 19:10:00      0.176     0.001    0.0020
   01/01/2000 19:15:00      0.174     0.001    0.0020
   01/01/2000 19:20:00      0.171     0.001    0.0020
   01/01/2000 19:25:00      0.169     0.001    0.0020
   01/01/2000 19:30:00      0.166     0.001    0.0019
   01/01/2000 19:35:00      0.164     0.001    0.0019
   01/01/2000 19:40:00      0.164     0.001    0.0019
   01/01/2000 19:45:00      0.161     0.001    0.0019
   01/01/2000 19:50:00      0.159     0.001    0.0019
   01/01/2000 19:55:00      0.156     0.001    0.0018
   01/01/2000 20:00:00      0.154     0.001    0.0018
   01/01/2000 20:05:00      0.154     0.001    0.0018
   01/01/2000 20:10:00      0.151     0.001    0.0018
   01/01/2000 20:15:00      0.149     0.001    0.0017
   01/01/2000 20:20:00      0.146     0.001    0.0017
   01/01/2000 20:25:00      0.144     0.001    0.0017
   01/01/2000 20:30:00      0.141     0.001    0.0017
   01/01/2000 20:35:00      0.141     0.001    0.0017
   01/01/2000 20:40:00      0.139     0.001    0.0016
   01/01/2000 20:45:00      0.136     0.001    0.0016
   01/01/2000 20:50:00      0.134     0.001    0.0016
   01/01/2000 20:55:00      0.131     0.001    0.0016
   01/01/2000 21:00:00      0.130     0.001    0.0015
   01/01/2000 21:05:00      0.130     0.001    0.0015
   01/01/2000 21:10:00      0.129     0.001    0.0015
   01/01/2000 21:15:00      0.129     0.001    0.0015
   01/01/2000 21:20:00      0.128     0.001    0.0015
   01/01/2000 21:25:00      0.128     0.001    0.0015
   01/01/2000 21:30:00      0.127     0.001    0.0015
   01/01/2000 21:35:00      0.127     0.001    0.0014
   01/01/2000 21:40:00      0.127     0.001    0.0014
   01/01/2000 21:45:00      0.126     0.001    0.0014
   01/01/2000 21:50:00      0.126     0.001    0.0014
   01/01/2000 21:55:00      0.125     0.001    0.0014
   01/01/2000 22:00:00      0.125     0.001    0.0014
   01/01/2000 22:05:00      0.125     0.001    0.0014
   01/01/2000 22:10:00      0.124     0.001    0.0014
   01/01/2000 22:15:00      0.124     0.001    0.0014
   01/01/2000 22:20:00      0.123     0.001    0.0014
   01/01/2000 22:25:00      0.123     0.001    0.0014
   01/01/2000 22:30:00      0.122     0.001    0.0014
   01/01/2000 22:35:00      0.122     0.001    0.0014
   01/01/2000 22:40:00      0.122     0.001    0.0014
   01/01/2000 22:45:00      0.121     0.001    0.0014
   01/01/2000 22:50:00      0.121     0.001    0.0014
   01/01/2000 22:55:00      0.120     0.001    0.0014
   01/01/2000 23:00:00      0.120     0.001    0.0013
   01/01/2000 23:05:00      0.120     0.001    0.0013
   01/01/2000 23:10:00      0.119     0.001    0.0013
   01/01/2000 23:15:00      0.119     0.001    0.0013
   01/01/2000 23:20:00      0.118     0.001    0.0013
   01/01/2000 23:25:00      0.118     0.001    0.0013
   01/01/2000 23:30:00      0.117     0.001    0.0013
   01/01/2000 23:35:00      0.117     0.001    0.0013
   01/01/2000 23:40:00      0.117     0.001    0.0013
   01/01/2000 23:45:00      0.116     0.001    0.0013
   01/01/2000 23:50:00      0.116     0.001    0.0013
   01/01/2000 23:55:00      0.115     0.001    0.0013
   01/02/2000 00:00:00      0.115     0.001    0.0013
  
  
  <<< Subcatchment S2 >>>
  ---------------------------------------------------
  Date        Time        Precip.    Losses    Runoff
                            mm/hr     mm/hr       CMS
  ---------------------------------------------------
   01/01/2000 00:05:00      0.000     0.000    0.0000
   01/01/2000 00:10:00      0.000     0.000    0.0000
   01/01/2000 00:15:00      0.000     0.000    0.0000
   01/01/2000 00:20:00      0.000     0.000    0.0000
   01/01/2000 00:25:00      0.000     0.000    0.0000
   01/01/2000 00:30:00      0.000     0.000    0.0000
   01/01/2000 00:35:00      0.000     0.000    0.0000
   01/01/2000 00:40:00      0.000     0.000    0.0000
   01/01/2000 00:45:00      0.000     0.000    0.0000
   01/01/2000 00:50:00      0.000     0.000    0.0000
   01/01/2000 00:55:00      0.000     0.000    0.0000
   01/01/2000 01:00:00      0.101     0.000    0.0000
   01/01/2000 01:05:00      0.101     0.094    0.0000
   01/01/2000 01:10:00      0.101     0.094    0.0000
   01/01/2000 01:15:00      0.103     0.096    0.0000
   01/01/2000 01:20:00      0.103     0.096    0.0000
   01/01/2000 01:25:00      0.105     0.098    0.0000
   01/01/2000 01:30:00      0.105     0.098    0.0000
   01/01/2000 01:35:00      0.105     0.098    0.0000
   01/01/2000 01:40:00      0.107     0.100    0.0000
   01/01/2000 01:45:00      0.107     0.089    0.0000
   01/01/2000 01:50:00      0.109     0.099    0.0000
   01/01/2000 01:55:00      0.109     0.090    0.0000
   01/01/2000 02:00:00      0.111     0.083    0.0000
   01/01/2000 02:05:00      0.111     0.083    0.0000
   01/01/2000 02:10:00      0.111     0.077    0.0000
   01/01/2000 02:15:00      0.113     0.072    0.0000
   01/01/2000 02:20:00      0.113     0.069    0.0000
   01/01/2000 02:25:00      0.115     0.066    0.0000
   01/01/2000 02:30:00      0.115     0.066    0.0000
   01/01/2000 02:35:00      0.115     0.064    0.0000
   01/01/2000 02:40:00      0.117     0.062    0.0000
   01/01/2000 02:45:00      0.117     0.060    0.0000
   01/01/2000 02:50:00      0.119     0.058    0.0000
   01/01/2000 02:55:00      0.119     0.057    0.0000
   01/01/2000 03:00:00      0.121     0.057    0.0000
   01/01/2000 03:05:00      0.121     0.055    0.0000
   01/01/2000 03:10:00      0.121     0.054    0.0000
   01/01/2000 03:15:00      0.123     0.053    0.0000
   01/01/2000 03:20:00      0.123     0.052    0.0000
   01/01/2000 03:25:00      0.125     0.051    0.0000
   01/01/2000 03:30:00      0.125     0.051    0.0000
   01/01/2000 03:35:00      0.125     0.050    0.0000
   01/01/2000 03:40:00      0.127     0.049    0.0000
   01/01/2000 03:45:00      0.127     0.049    0.0000
   01/01/2000 03:50:00      0.129     0.048    0.0000
   01/01/2000 03:55:00      0.129     0.047    0.0000
   01/01/2000 04:00:00      0.131     0.047    0.0000
   01/01/2000 04:05:00      0.131     0.047    0.0000
   01/01/2000 04:10:00      0.131     0.046    0.0000
   01/01/2000 04:15:00      0.133     0.046    0.0000
   01/01/2000 04:20:00      0.133     0.045    0.0000
   01/01/2000 04:25:00      0.135     0.045    0.0000
   01/01/2000 04:30:00      0.135     0.045    0.0000
   01/01/2000 04:35:00      0.135     0.044    0.0000
   01/01/2000 04:40:00      0.137     0.044    0.0003
   01/01/2000 04:45:00      0.137     0.043    0.0003
   01/01/2000 04:50:00      0.139     0.043    0.0004
   01/01/2000 04:55:00      0.139     0.043    0.0004
   01/01/2000 05:00:00      0.141     0.043    0.0004
   01/01/2000 05:05:00      0.141     0.042    0.0004
   01/01/2000 05:10:00      0.143     0.042    0.0005
   01/01/2000 05:15:00      0.145     0.041    0.0005
   01/01/2000 05:20:00      0.147     0.041    0.0005
   01/01/2000 05:25:00      0.149     0.041    0.0005
   01/01/2000 05:30:00      0.151     0.041    0.0006
   01/01/2000 05:35:00      0.153     0.040    0.0006
   01/01/2000 05:40:00      0.153     0.040    0.0006
   01/01/2000 05:45:00      0.155     0.040    0.0007
   01/01/2000 05:50:00      0.157     0.040    0.0007
   01/01/2000 05:55:00      0.159     0.039    0.0007
   01/01/2000 06:00:00      0.161     0.039    0.0008
   01/01/2000 06:05:00      0.163     0.039    0.0008
   01/01/2000 06:10:00      0.163     0.039    0.0008
   01/01/2000 06:15:00      0.165     0.039    0.0009
   01/01/2000 06:20:00      0.167     0.038    0.0009
   01/01/2000 06:25:00      0.169     0.038    0.0009
   01/01/2000 06:30:00      0.171     0.038    0.0010
   01/01/2000 06:35:00      0.173     0.038    0.0010
   01/01/2000 06:40:00      0.173     0.038    0.0010
   01/01/2000 06:45:00      0.175     0.038    0.0010
   01/01/2000 06:50:00      0.177     0.037    0.0011
   01/01/2000 06:55:00      0.179     0.037    0.0011
   01/01/2000 07:00:00      0.181     0.037    0.0011
   01/01/2000 07:05:00      0.183     0.037    0.0012
   01/01/2000 07:10:00      0.183     0.037    0.0012
   01/01/2000 07:15:00      0.185     0.037    0.0012
   01/01/2000 07:20:00      0.187     0.036    0.0012
   01/01/2000 07:25:00      0.189     0.036    0.0013
   01/01/2000 07:30:00      0.191     0.036    0.0013
   01/01/2000 07:35:00      0.193     0.036    0.0013
   01/01/2000 07:40:00      0.193     0.036    0.0014
   01/01/2000 07:45:00      0.195     0.036    0.0014
   01/01/2000 07:50:00      0.197     0.035    0.0014
   01/01/2000 07:55:00      0.199     0.035    0.0014
   01/01/2000 08:00:00      0.201     0.035    0.0015
   01/01/2000 08:05:00      0.203     0.035    0.0015
   01/01/2000 08:10:00      0.203     0.035    0.0015
   01/01/2000 08:15:00      0.205     0.035    0.0015
   01/01/2000 08:20:00      0.207     0.035    0.0016
   01/01/2000 08:25:00      0.209     0.035    0.0016
   01/01/2000 08:30:00      0.211     0.034    0.0016
   01/01/2000 08:35:00      0.213     0.034    0.0016
   01/01/2000 08:40:00      0.213     0.034    0.0017
   01/01/2000 08:45:00      0.215     0.034    0.0017
   01/01/2000 08:50:00      0.217     0.034    0.0017
   01/01/2000 08:55:00      0.219     0.034    0.0017
   01/01/2000 09:00:00      0.225     0.034    0.0018
   01/01/2000 09:05:00      0.235     0.034    0.0018
   01/01/2000 09:10:00      0.235     0.034    0.0018
   01/01/2000 09:15:00      0.245     0.033    0.0019
   01/01/2000 09:20:00      0.255     0.033    0.0019
   01/01/2000 09:25:00      0.265     0.033    0.0020
   01/01/2000 09:30:00      0.275     0.033    0.0020
   01/01/2000 09:35:00      0.285     0.033    0.0021
   01/01/2000 09:40:00      0.285     0.033    0.0021
   01/01/2000 09:45:00      0.295     0.033    0.0022
   01/01/2000 09:50:00      0.305     0.033    0.0023
   01/01/2000 09:55:00      0.315     0.033    0.0023
   01/01/2000 10:00:00      0.320     0.033    0.0024
   01/01/2000 10:05:00      0.320     0.033    0.0025
   01/01/2000 10:10:00      0.320     0.033    0.0025
   01/01/2000 10:15:00      0.320     0.033    0.0026
   01/01/2000 10:20:00      0.320     0.032    0.0026
   01/01/2000 10:25:00      0.320     0.032    0.0027
   01/01/2000 10:30:00      0.328     0.032    0.0027
   01/01/2000 10:35:00      0.344     0.032    0.0028
   01/01/2000 10:40:00      0.344     0.032    0.0029
   01/01/2000 10:45:00      0.360     0.032    0.0029
   01/01/2000 10:50:00      0.376     0.032    0.0030
   01/01/2000 10:55:00      0.392     0.032    0.0031
   01/01/2000 11:00:00      0.412     0.032    0.0032
   01/01/2000 11:05:00      0.436     0.032    0.0033
   01/01/2000 11:10:00      0.436     0.032    0.0034
   01/01/2000 11:15:00      0.460     0.032    0.0036
   01/01/2000 11:20:00      0.484     0.032    0.0037
   01/01/2000 11:25:00      0.508     0.032    0.0038
   01/01/2000 11:30:00      0.540     0.032    0.0040
   01/01/2000 11:35:00      0.580     0.032    0.0042
   01/01/2000 11:40:00      0.580     0.032    0.0044
   01/01/2000 11:45:00      0.620     0.032    0.0046
   01/01/2000 11:50:00      0.660     0.032    0.0049
   01/01/2000 11:55:00      0.700     0.032    0.0052
   01/01/2000 12:00:00      0.768     0.032    0.0054
   01/01/2000 12:05:00      0.864     0.032    0.0058
   01/01/2000 12:10:00      0.864     0.032    0.0062
   01/01/2000 12:15:00      0.960     0.032    0.0067
   01/01/2000 12:20:00      1.056     0.032    0.0073
   01/01/2000 12:25:00      1.152     0.032    0.0079
   01/01/2000 12:30:00      2.384     0.032    0.0091
   01/01/2000 12:35:00      4.752     0.032    0.0121
   01/01/2000 12:40:00      4.752     0.032    0.0198
   01/01/2000 12:45:00      7.643     0.034    0.0323
   01/01/2000 12:50:00     13.707     0.036    0.0563
   01/01/2000 12:55:00      9.514     0.039    0.0774
   01/01/2000 13:00:00      1.896     0.040    0.0787
   01/01/2000 13:05:00      1.668     0.040    0.0585
   01/01/2000 13:10:00      1.668     0.038    0.0483
   01/01/2000 13:15:00      1.440     0.037    0.0405
   01/01/2000 13:20:00      1.212     0.036    0.0344
   01/01/2000 13:25:00      0.984     0.035    0.0294
   01/01/2000 13:30:00      0.844     0.034    0.0253
   01/01/2000 13:35:00      0.792     0.034    0.0220
   01/01/2000 13:40:00      0.792     0.033    0.0195
   01/01/2000 13:45:00      0.740     0.033    0.0175
   01/01/2000 13:50:00      0.688     0.032    0.0157
   01/01/2000 13:55:00      0.636     0.032    0.0143
   01/01/2000 14:00:00      0.596     0.031    0.0130
   01/01/2000 14:05:00      0.568     0.031    0.0119
   01/01/2000 14:10:00      0.568     0.031    0.0111
   01/01/2000 14:15:00      0.540     0.031    0.0103
   01/01/2000 14:20:00      0.512     0.031    0.0096
   01/01/2000 14:25:00      0.484     0.030    0.0090
   01/01/2000 14:30:00      0.460     0.030    0.0084
   01/01/2000 14:35:00      0.440     0.030    0.0079
   01/01/2000 14:40:00      0.440     0.030    0.0075
   01/01/2000 14:45:00      0.420     0.030    0.0071
   01/01/2000 14:50:00      0.400     0.030    0.0067
   01/01/2000 14:55:00      0.380     0.030    0.0064
   01/01/2000 15:00:00      0.367     0.029    0.0061
   01/01/2000 15:05:00      0.359     0.029    0.0058
   01/01/2000 15:10:00      0.359     0.029    0.0055
   01/01/2000 15:15:00      0.353     0.029    0.0053
   01/01/2000 15:20:00      0.345     0.029    0.0051
   01/01/2000 15:25:00      0.339     0.029    0.0049
   01/01/2000 15:30:00      0.331     0.029    0.0048
   01/01/2000 15:35:00      0.325     0.029    0.0046
   01/01/2000 15:40:00      0.325     0.029    0.0045
   01/01/2000 15:45:00      0.317     0.029    0.0043
   01/01/2000 15:50:00      0.311     0.028    0.0042
   01/01/2000 15:55:00      0.303     0.028    0.0041
   01/01/2000 16:00:00      0.297     0.016    0.0040
   01/01/2000 16:05:00      0.289     0.016    0.0039
   01/01/2000 16:10:00      0.289     0.016    0.0038
   01/01/2000 16:15:00      0.283     0.016    0.0037
   01/01/2000 16:20:00      0.275     0.016    0.0036
   01/01/2000 16:25:00      0.269     0.016    0.0036
   01/01/2000 16:30:00      0.261     0.016    0.0035
   01/01/2000 16:35:00      0.255     0.016    0.0034
   01/01/2000 16:40:00      0.255     0.016    0.0033
   01/01/2000 16:45:00      0.247     0.016    0.0033
   01/01/2000 16:50:00      0.241     0.016    0.0032
   01/01/2000 16:55:00      0.233     0.016    0.0031
   01/01/2000 17:00:00      0.229     0.016    0.0031
   01/01/2000 17:05:00      0.226     0.016    0.0030
   01/01/2000 17:10:00      0.226     0.016    0.0029
   01/01/2000 17:15:00      0.224     0.016    0.0029
   01/01/2000 17:20:00      0.221     0.016    0.0028
   01/01/2000 17:25:00      0.219     0.016    0.0028
   01/01/2000 17:30:00      0.216     0.016    0.0027
   01/01/2000 17:35:00      0.214     0.016    0.0027
   01/01/2000 17:40:00      0.214     0.016    0.0026
   01/01/2000 17:45:00      0.211     0.016    0.0026
   01/01/2000 17:50:00      0.209     0.016    0.0026
   01/01/2000 17:55:00      0.206     0.016    0.0025
   01/01/2000 18:00:00      0.204     0.016    0.0025
   01/01/2000 18:05:00      0.201     0.016    0.0024
   01/01/2000 18:10:00      0.201     0.016    0.0024
   01/01/2000 18:15:00      0.199     0.016    0.0024
   01/01/2000 18:20:00      0.196     0.016    0.0023
   01/01/2000 18:25:00      0.194     0.016    0.0023
   01/01/2000 18:30:00      0.191     0.016    0.0023
   01/01/2000 18:35:00      0.189     0.016    0.0023
   01/01/2000 18:40:00      0.189     0.016    0.0022
   01/01/2000 18:45:00      0.186     0.016    0.0022
   01/01/2000 18:50:00      0.184     0.016    0.0022
   01/01/2000 18:55:00      0.181     0.016    0.0021
   01/01/2000 19:00:00      0.179     0.016    0.0021
   01/01/2000 19:05:00      0.176     0.016    0.0021
   01/01/2000 19:10:00      0.176     0.016    0.0021
   01/01/2000 19:15:00      0.174     0.016    0.0020
   01/01/2000 19:20:00      0.171     0.016    0.0020
   01/01/2000 19:25:00      0.169     0.016    0.0020
   01/01/2000 19:30:00      0.166     0.016    0.0020
   01/01/2000 19:35:00      0.164     0.016    0.0019
   01/01/2000 19:40:00      0.164     0.016    0.0019
   01/01/2000 19:45:00      0.161     0.016    0.0019
   01/01/2000 19:50:00      0.159     0.027    0.0019
   01/01/2000 19:55:00      0.156     0.016    0.0018
   01/01/2000 20:00:00      0.154     0.016    0.0018
   01/01/2000 20:05:00      0.154     0.016    0.0018
   01/01/2000 20:10:00      0.151     0.016    0.0018
   01/01/2000 20:15:00      0.149     0.016    0.0017
   01/01/2000 20:20:00      0.146     0.016    0.0017
   01/01/2000 20:25:00      0.144     0.016    0.0017
   01/01/2000 20:30:00      0.141     0.016    0.0017
   01/01/2000 20:35:00      0.141     0.016    0.0017
   01/01/2000 20:40:00      0.139     0.016    0.0016
   01/01/2000 20:45:00      0.136     0.016    0.0016
   01/01/2000 20:50:00      0.134     0.016    0.0016
   01/01/2000 20:55:00      0.131     0.016    0.0016
   01/01/2000 21:00:00      0.130     0.016    0.0015
   01/01/2000 21:05:00      0.130     0.016    0.0015
   01/01/2000 21:10:00      0.129     0.016    0.0015
   01/01/2000 21:15:00      0.129     0.016    0.0015
   01/01/2000 21:20:00      0.128     0.016    0.0015
   01/01/2000 21:25:00      0.128     0.016    0.0015
   01/01/2000 21:30:00      0.127     0.016    0.0014
   01/01/2000 21:35:00      0.127     0.016    0.0014
   01/01/2000 21:40:00      0.127     0.016    0.0014
   01/01/2000 21:45:00      0.126     0.016    0.0014
   01/01/2000 21:50:00      0.126     0.016    0.0014
   01/01/2000 21:55:00      0.125     0.016    0.0014
   01/01/2000 22:00:00      0.125     0.016    0.0014
   01/01/2000 22:05:00      0.125     0.016    0.0014
   01/01/2000 22:10:00      0.124     0.016    0.0013
   01/01/2000 22:15:00      0.124     0.016    0.0013
   01/01/2000 22:20:00      0.123     0.016    0.0013
   01/01/2000 22:25:00      0.123     0.016    0.0013
   01/01/2000 22:30:00      0.122     0.016    0.0013
   01/01/2000 22:35:00      0.122     0.016    0.0013
   01/01/2000 22:40:00      0.122     0.016    0.0013
   01/01/2000 22:45:00      0.121     0.016    0.0013
   01/01/2000 22:50:00      0.121     0.016    0.0013
   01/01/2000 22:55:00      0.120     0.016    0.0013
   01/01/2000 23:00:00      0.120     0.016    0.0013
   01/01/2000 23:05:00      0.120     0.016    0.0013
   01/01/2000 23:10:00      0.119     0.016    0.0012
   01/01/2000 23:15:00      0.119     0.016    0.0012
   01/01/2000 23:20:00      0.118     0.016    0.0012
   01/01/2000 23:25:00      0.118     0.016    0.0012
   01/01/2000 23:30:00      0.117     0.016    0.0012
   01/01/2000 23:35:00      0.117     0.016    0.0012
   01/01/2000 23:40:00      0.117     0.016    0.0012
   01/01/2000 23:45:00      0.116     0.016    0.0012
   01/01/2000 23:50:00      0.116     0.016    0.0012
   01/01/2000 23:55:00      0.115     0.016    0.0012
   01/02/2000 00:00:00      0.115     0.016    0.0012
  
  
  <<< Subcatchment S3 >>>
  ---------------------------------------------------
  Date        Time        Precip.    Losses    Runoff
                            mm/hr     mm/hr       CMS
  ---------------------------------------------------
   01/01/2000 00:05:00      0.000     0.000    0.0000
   01/01/2000 00:10:00      0.000     0.000    0.0000
   01/01/2000 00:15:00      0.000     0.000    0.0000
   01/01/2000 00:20:00      0.000     0.000    0.0000
   01/01/2000 00:25:00      0.000     0.000    0.0000
   01/01/2000 00:30:00      0.000     0.000    0.0000
   01/01/2000 00:35:00      0.000     0.000    0.0000
   01/01/2000 00:40:00      0.000     0.000    0.0000
   01/01/2000 00:45:00      0.000     0.000    0.0000
   01/01/2000 00:50:00      0.000     0.000    0.0000
   01/01/2000 00:55:00      0.000     0.000    0.0000
   01/01/2000 01:00:00      0.101     0.000    0.0000
   01/01/2000 01:05:00      0.101     0.002    0.0000
   01/01/2000 01:10:00      0.101     0.002    0.0000
   01/01/2000 01:15:00      0.103     0.002    0.0000
   01/01/2000 01:20:00      0.103     0.002    0.0000
   01/01/2000 01:25:00      0.105     0.002    0.0000
   01/01/2000 01:30:00      0.105     0.002    0.0000
   01/01/2000 01:35:00      0.105     0.002    0.0000
   01/01/2000 01:40:00      0.107     0.002    0.0000
   01/01/2000 01:45:00      0.107     0.002    0.0000
   01/01/2000 01:50:00      0.109     0.002    0.0000
   01/01/2000 01:55:00      0.109     0.002    0.0000
   01/01/2000 02:00:00      0.111     0.002    0.0000
   01/01/2000 02:05:00      0.111     0.002    0.0003
   01/01/2000 02:10:00      0.111     0.002    0.0004
   01/01/2000 02:15:00      0.113     0.002    0.0004
   01/01/2000 02:20:00      0.113     0.002    0.0004
   01/01/2000 02:25:00      0.115     0.002    0.0005
   01/01/2000 02:30:00      0.115     0.002    0.0005
   01/01/2000 02:35:00      0.115     0.002    0.0005
   01/01/2000 02:40:00      0.117     0.002    0.0005
   01/01/2000 02:45:00      0.117     0.002    0.0006
   01/01/2000 02:50:00      0.119     0.002    0.0006
   01/01/2000 02:55:00      0.119     0.002    0.0006
   01/01/2000 03:00:00      0.121     0.002    0.0007
   01/01/2000 03:05:00      0.121     0.002    0.0007
   01/01/2000 03:10:00      0.121     0.002    0.0007
   01/01/2000 03:15:00      0.123     0.002    0.0007
   01/01/2000 03:20:00      0.123     0.002    0.0007
   01/01/2000 03:25:00      0.125     0.002    0.0008
   01/01/2000 03:30:00      0.125     0.002    0.0008
   01/01/2000 03:35:00      0.125     0.002    0.0008
   01/01/2000 03:40:00      0.127     0.002    0.0008
   01/01/2000 03:45:00      0.127     0.002    0.0008
   01/01/2000 03:50:00      0.129     0.002    0.0008
   01/01/2000 03:55:00      0.129     0.002    0.0009
   01/01/2000 04:00:00      0.131     0.002    0.0009
   01/01/2000 04:05:00      0.131     0.002    0.0009
   01/01/2000 04:10:00      0.131     0.002    0.0009
   01/01/2000 04:15:00      0.133     0.002    0.0009
   01/01/2000 04:20:00      0.133     0.002    0.0009
   01/01/2000 04:25:00      0.135     0.002    0.0009
   01/01/2000 04:30:00      0.135     0.002    0.0009
   01/01/2000 04:35:00      0.135     0.002    0.0009
   01/01/2000 04:40:00      0.137     0.002    0.0010
   01/01/2000 04:45:00      0.137     0.002    0.0010
   01/01/2000 04:50:00      0.139     0.002    0.0010
   01/01/2000 04:55:00      0.139     0.002    0.0010
   01/01/2000 05:00:00      0.141     0.002    0.0010
   01/01/2000 05:05:00      0.141     0.002    0.0010
   01/01/2000 05:10:00      0.143     0.002    0.0010
   01/01/2000 05:15:00      0.145     0.002    0.0010
   01/01/2000 05:20:00      0.147     0.002    0.0010
   01/01/2000 05:25:00      0.149     0.002    0.0010
   01/01/2000 05:30:00      0.151     0.002    0.0010
   01/01/2000 05:35:00      0.153     0.002    0.0011
   01/01/2000 05:40:00      0.153     0.002    0.0011
   01/01/2000 05:45:00      0.155     0.002    0.0011
   01/01/2000 05:50:00      0.157     0.002    0.0011
   01/01/2000 05:55:00      0.159     0.002    0.0011
   01/01/2000 06:00:00      0.161     0.003    0.0011
   01/01/2000 06:05:00      0.163     0.003    0.0011
   01/01/2000 06:10:00      0.163     0.003    0.0011
   01/01/2000 06:15:00      0.165     0.003    0.0012
   01/01/2000 06:20:00      0.167     0.003    0.0012
   01/01/2000 06:25:00      0.169     0.003    0.0012
   01/01/2000 06:30:00      0.171     0.003    0.0012
   01/01/2000 06:35:00      0.173     0.003    0.0012
   01/01/2000 06:40:00      0.173     0.003    0.0012
   01/01/2000 06:45:00      0.175     0.003    0.0012
   01/01/2000 06:50:00      0.177     0.003    0.0012
   01/01/2000 06:55:00      0.179     0.003    0.0013
   01/01/2000 07:00:00      0.181     0.003    0.0013
   01/01/2000 07:05:00      0.183     0.003    0.0013
   01/01/2000 07:10:00      0.183     0.003    0.0013
   01/01/2000 07:15:00      0.185     0.003    0.0013
   01/01/2000 07:20:00      0.187     0.003    0.0013
   01/01/2000 07:25:00      0.189     0.003    0.0013
   01/01/2000 07:30:00      0.191     0.003    0.0013
   01/01/2000 07:35:00      0.193     0.003    0.0014
   01/01/2000 07:40:00      0.193     0.003    0.0014
   01/01/2000 07:45:00      0.195     0.003    0.0014
   01/01/2000 07:50:00      0.197     0.003    0.0014
   01/01/2000 07:55:00      0.199     0.003    0.0014
   01/01/2000 08:00:00      0.201     0.003    0.0014
   01/01/2000 08:05:00      0.203     0.003    0.0014
   01/01/2000 08:10:00      0.203     0.003    0.0015
   01/01/2000 08:15:00      0.205     0.003    0.0015
   01/01/2000 08:20:00      0.207     0.003    0.0015
   01/01/2000 08:25:00      0.209     0.003    0.0015
   01/01/2000 08:30:00      0.211     0.003    0.0015
   01/01/2000 08:35:00      0.213     0.003    0.0015
   01/01/2000 08:40:00      0.213     0.003    0.0015
   01/01/2000 08:45:00      0.215     0.003    0.0015
   01/01/2000 08:50:00      0.217     0.003    0.0016
   01/01/2000 08:55:00      0.219     0.003    0.0016
   01/01/2000 09:00:00      0.225     0.004    0.0016
   01/01/2000 09:05:00      0.235     0.004    0.0016
   01/01/2000 09:10:00      0.235     0.004    0.0016
   01/01/2000 09:15:00      0.245     0.004    0.0017
   01/01/2000 09:20:00      0.255     0.004    0.0017
   01/01/2000 09:25:00      0.265     0.004    0.0017
   01/01/2000 09:30:00      0.275     0.004    0.0018
   01/01/2000 09:35:00      0.285     0.004    0.0018
   01/01/2000 09:40:00      0.285     0.004    0.0019
   01/01/2000 09:45:00      0.295     0.005    0.0019
   01/01/2000 09:50:00      0.305     0.005    0.0020
   01/01/2000 09:55:00      0.315     0.005    0.0020
   01/01/2000 10:00:00      0.320     0.005    0.0021
   01/01/2000 10:05:00      0.320     0.005    0.0021
   01/01/2000 10:10:00      0.320     0.005    0.0022
   01/01/2000 10:15:00      0.320     0.005    0.0022
   01/01/2000 10:20:00      0.320     0.005    0.0022
   01/01/2000 10:25:00      0.320     0.005    0.0023
   01/01/2000 10:30:00      0.328     0.005    0.0023
   01/01/2000 10:35:00      0.344     0.005    0.0023
   01/01/2000 10:40:00      0.344     0.005    0.0024
   01/01/2000 10:45:00      0.360     0.006    0.0024
   01/01/2000 10:50:00      0.376     0.006    0.0025
   01/01/2000 10:55:00      0.392     0.006    0.0025
   01/01/2000 11:00:00      0.412     0.006    0.0026
   01/01/2000 11:05:00      0.436     0.006    0.0027
   01/01/2000 11:10:00      0.436     0.007    0.0028
   01/01/2000 11:15:00      0.460     0.007    0.0029
   01/01/2000 11:20:00      0.484     0.008    0.0030
   01/01/2000 11:25:00      0.508     0.008    0.0032
   01/01/2000 11:30:00      0.540     0.008    0.0038
   01/01/2000 11:35:00      0.580     0.008    0.0048
   01/01/2000 11:40:00      0.580     0.009    0.0051
   01/01/2000 11:45:00      0.620     0.010    0.0053
   01/01/2000 11:50:00      0.660     0.010    0.0056
   01/01/2000 11:55:00      0.700     0.011    0.0059
   01/01/2000 12:00:00      0.768     0.012    0.0062
   01/01/2000 12:05:00      0.864     0.012    0.0066
   01/01/2000 12:10:00      0.864     0.012    0.0071
   01/01/2000 12:15:00      0.960     0.012    0.0077
   01/01/2000 12:20:00      1.056     0.012    0.0084
   01/01/2000 12:25:00      1.152     0.012    0.0091
   01/01/2000 12:30:00      2.384     0.012    0.0104
   01/01/2000 12:35:00      4.752     0.012    0.0140
   01/01/2000 12:40:00      4.752     0.012    0.0240
   01/01/2000 12:45:00      7.643     0.012    0.0408
   01/01/2000 12:50:00     13.707     0.012    0.0720
   01/01/2000 12:55:00      9.514     0.013    0.0975
   01/01/2000 13:00:00      1.896     0.012    0.0942
   01/01/2000 13:05:00      1.668     0.012    0.0628
   01/01/2000 13:10:00      1.668     0.012    0.0474
   01/01/2000 13:15:00      1.440     0.012    0.0371
   01/01/2000 13:20:00      1.212     0.012    0.0300
   01/01/2000 13:25:00      0.984     0.012    0.0248
   01/01/2000 13:30:00      0.844     0.012    0.0208
   01/01/2000 13:35:00      0.792     0.012    0.0177
   01/01/2000 13:40:00      0.792     0.012    0.0156
   01/01/2000 13:45:00      0.740     0.012    0.0139
   01/01/2000 13:50:00      0.688     0.012    0.0125
   01/01/2000 13:55:00      0.636     0.012    0.0113
   01/01/2000 14:00:00      0.596     0.012    0.0104
   01/01/2000 14:05:00      0.568     0.012    0.0096
   01/01/2000 14:10:00      0.568     0.012    0.0089
   01/01/2000 14:15:00      0.540     0.012    0.0083
   01/01/2000 14:20:00      0.512     0.012    0.0078
   01/01/2000 14:25:00      0.484     0.010    0.0074
   01/01/2000 14:30:00      0.460     0.007    0.0070
   01/01/2000 14:35:00      0.440     0.007    0.0066
   01/01/2000 14:40:00      0.440     0.007    0.0063
   01/01/2000 14:45:00      0.420     0.007    0.0060
   01/01/2000 14:50:00      0.400     0.006    0.0058
   01/01/2000 14:55:00      0.380     0.006    0.0055
   01/01/2000 15:00:00      0.367     0.006    0.0053
   01/01/2000 15:05:00      0.359     0.006    0.0051
   01/01/2000 15:10:00      0.359     0.006    0.0049
   01/01/2000 15:15:00      0.353     0.006    0.0047
   01/01/2000 15:20:00      0.345     0.005    0.0046
   01/01/2000 15:25:00      0.339     0.005    0.0045
   01/01/2000 15:30:00      0.331     0.005    0.0043
   01/01/2000 15:35:00      0.325     0.005    0.0042
   01/01/2000 15:40:00      0.325     0.005    0.0041
   01/01/2000 15:45:00      0.317     0.005    0.0040
   01/01/2000 15:50:00      0.311     0.005    0.0039
   01/01/2000 15:55:00      0.303     0.005    0.0039
   01/01/2000 16:00:00      0.297     0.005    0.0038
   01/01/2000 16:05:00      0.289     0.005    0.0037
   01/01/2000 16:10:00      0.289     0.005    0.0036
   01/01/2000 16:15:00      0.283     0.004    0.0036
   01/01/2000 16:20:00      0.275     0.004    0.0035
   01/01/2000 16:25:00      0.269     0.004    0.0034
   01/01/2000 16:30:00      0.261     0.004    0.0033
   01/01/2000 16:35:00      0.255     0.004    0.0033
   01/01/2000 16:40:00      0.255     0.004    0.0032
   01/01/2000 16:45:00      0.247     0.004    0.0031
   01/01/2000 16:50:00      0.241     0.004    0.0031
   01/01/2000 16:55:00      0.233     0.004    0.0030
   01/01/2000 17:00:00      0.229     0.004    0.0030
   01/01/2000 17:05:00      0.226     0.004    0.0029
   01/01/2000 17:10:00      0.226     0.004    0.0028
   01/01/2000 17:15:00      0.224     0.003    0.0028
   01/01/2000 17:20:00      0.221     0.003    0.0027
   01/01/2000 17:25:00      0.219     0.003    0.0027
   01/01/2000 17:30:00      0.216     0.003    0.0027
   01/01/2000 17:35:00      0.214     0.003    0.0026
   01/01/2000 17:40:00      0.214     0.003    0.0026
   01/01/2000 17:45:00      0.211     0.003    0.0026
   01/01/2000 17:50:00      0.209     0.003    0.0025
   01/01/2000 17:55:00      0.206     0.003    0.0025
   01/01/2000 18:00:00      0.204     0.003    0.0025
   01/01/2000 18:05:00      0.201     0.003    0.0024
   01/01/2000 18:10:00      0.201     0.003    0.0024
   01/01/2000 18:15:00      0.199     0.003    0.0024
   01/01/2000 18:20:00      0.196     0.003    0.0023
   01/01/2000 18:25:00      0.194     0.003    0.0023
   01/01/2000 18:30:00      0.191     0.003    0.0023
   01/01/2000 18:35:00      0.189     0.003    0.0023
   01/01/2000 18:40:00      0.189     0.003    0.0022
   01/01/2000 18:45:00      0.186     0.003    0.0022
   01/01/2000 18:50:00      0.184     0.003    0.0022
   01/01/2000 18:55:00      0.181     0.003    0.0022
   01/01/2000 19:00:00      0.179     0.003    0.0022
   01/01/2000 19:05:00      0.176     0.003    0.0021
   01/01/2000 19:10:00      0.176     0.003    0.0021
   01/01/2000 19:15:00      0.174     0.003    0.0021
   01/01/2000 19:20:00      0.171     0.003    0.0021
   01/01/2000 19:25:00      0.169     0.003    0.0020
   01/01/2000 19:30:00      0.166     0.003    0.0020
   01/01/2000 19:35:00      0.164     0.003    0.0020
   01/01/2000 19:40:00      0.164     0.003    0.0020
   01/01/2000 19:45:00      0.161     0.003    0.0019
   01/01/2000 19:50:00      0.159     0.002    0.0019
   01/01/2000 19:55:00      0.156     0.002    0.0019
   01/01/2000 20:00:00      0.154     0.002    0.0019
   01/01/2000 20:05:00      0.154     0.002    0.0019
   01/01/2000 20:10:00      0.151     0.002    0.0018
   01/01/2000 20:15:00      0.149     0.002    0.0018
   01/01/2000 20:20:00      0.146     0.002    0.0018
   01/01/2000 20:25:00      0.144     0.002    0.0018
   01/01/2000 20:30:00      0.141     0.002    0.0017
   01/01/2000 20:35:00      0.141     0.002    0.0017
   01/01/2000 20:40:00      0.139     0.002    0.0017
   01/01/2000 20:45:00      0.136     0.002    0.0017
   01/01/2000 20:50:00      0.134     0.002    0.0017
   01/01/2000 20:55:00      0.131     0.002    0.0016
   01/01/2000 21:00:00      0.130     0.002    0.0016
   01/01/2000 21:05:00      0.130     0.002    0.0016
   01/01/2000 21:10:00      0.129     0.002    0.0016
   01/01/2000 21:15:00      0.129     0.002    0.0016
   01/01/2000 21:20:00      0.128     0.002    0.0015
   01/01/2000 21:25:00      0.128     0.002    0.0015
   01/01/2000 21:30:00      0.127     0.002    0.0015
   01/01/2000 21:35:00      0.127     0.002    0.0015
   01/01/2000 21:40:00      0.127     0.002    0.0015
   01/01/2000 21:45:00      0.126     0.002    0.0015
   01/01/2000 21:50:00      0.126     0.002    0.0015
   01/01/2000 21:55:00      0.125     0.002    0.0015
   01/01/2000 22:00:00      0.125     0.002    0.0015
   01/01/2000 22:05:00      0.125     0.002    0.0014
   01/01/2000 22:10:00      0.124     0.002    0.0014
   01/01/2000 22:15:00      0.124     0.002    0.0014
   01/01/2000 22:20:00      0.123     0.002    0.0014
   01/01/2000 22:25:00      0.123     0.002    0.0014
   01/01/2000 22:30:00      0.122     0.002    0.0014
   01/01/2000 22:35:00      0.122     0.002    0.0014
   01/01/2000 22:40:00      0.122     0.002    0.0014
   01/01/2000 22:45:00      0.121     0.002    0.0014
   01/01/2000 22:50:00      0.121     0.002    0.0014
   01/01/2000 22:55:00      0.120     0.002    0.0014
   01/01/2000 23:00:00      0.120     0.002    0.0014
   01/01/2000 23:05:00      0.120     0.002    0.0014
   01/01/2000 23:10:00      0.119     0.002    0.0014
   01/01/2000 23:15:00      0.119     0.002    0.0014
   01/01/2000 23:20:00      0.118     0.002    0.0013
   01/01/2000 23:25:00      0.118     0.002    0.0013
   01/01/2000 23:30:00      0.117     0.002    0.0013
   01/01/2000 23:35:00      0.117     0.002    0.0013
   01/01/2000 23:40:00      0.117     0.002    0.0013
   01/01/2000 23:45:00      0.116     0.002    0.0013
   01/01/2000 23:50:00      0.116     0.002    0.0013
   01/01/2000 23:55:00      0.115     0.002    0.0013
   01/02/2000 00:00:00      0.115     0.002    0.0013
  
  
  ************
  Node Results
  ************
  
  <<< Node J3 >>>
  ----------------------------------------------------------------
                           Inflow  Flooding     Depth      Head
  Date        Time            CMS       CMS    meters    meters
  ----------------------------------------------------------------
   01/01/2000 00:05:00      0.000     0.000     0.000    93.000
   01/01/2000 00:10:00      0.000     0.000     0.000    93.000
   01/01/2000 00:15:00      0.000     0.000     0.000    93.000
   01/01/2000 00:20:00      0.000     0.000     0.000    93.000
   01/01/2000 00:25:00      0.000     0.000     0.000    93.000
   01/01/2000 00:30:00      0.000     0.000     0.000    93.000
   01/01/2000 00:35:00      0.000     0.000     0.000    93.000
   01/01/2000 00:40:00      0.000     0.000     0.000    93.000
   01/01/2000 00:45:00      0.000     0.000     0.000    93.000
   01/01/2000 00:50:00      0.000     0.000     0.000    93.000
   01/01/2000 00:55:00      0.000     0.000     0.000    93.000
   01/01/2000 01:00:00      0.000     0.000     0.000    93.000
   01/01/2000 01:05:00      0.000     0.000     0.001    93.001
   01/01/2000 01:10:00      0.000     0.000     0.001    93.001
   01/01/2000 01:15:00      0.000     0.000     0.002    93.002
   01/01/2000 01:20:00      0.000     0.000     0.002    93.002
   01/01/2000 01:25:00      0.000     0.000     0.003    93.003
   01/01/2000 01:30:00      0.000     0.000     0.004    93.004
   01/01/2000 01:35:00      0.000     0.000     0.004    93.004
   01/01/2000 01:40:00      0.000     0.000     0.005    93.005
   01/01/2000 01:45:00      0.000     0.000     0.005    93.005
   01/01/2000 01:50:00      0.000     0.000     0.006    93.006
   01/01/2000 01:55:00      0.000     0.000     0.006    93.006
   01/01/2000 02:00:00      0.000     0.000     0.007    93.007
   01/01/2000 02:05:00      0.000     0.000     0.007    93.007
   01/01/2000 02:10:00      0.000     0.000     0.008    93.008
   01/01/2000 02:15:00      0.000     0.000     0.008    93.008
   01/01/2000 02:20:00      0.000     0.000     0.008    93.008
   01/01/2000 02:25:00      0.000     0.000     0.009    93.009
   01/01/2000 02:30:00      0.000     0.000     0.009    93.009
   01/01/2000 02:35:00      0.001     0.000     0.009    93.009
   01/01/2000 02:40:00      0.001     0.000     0.009    93.009
   01/01/2000 02:45:00      0.001     0.000     0.010    93.010
   01/01/2000 02:50:00      0.001     0.000     0.010    93.010
   01/01/2000 02:55:00      0.001     0.000     0.010    93.010
   01/01/2000 03:00:00      0.001     0.000     0.010    93.010
   01/01/2000 03:05:00      0.001     0.000     0.010    93.010
   01/01/2000 03:10:00      0.001     0.000     0.010    93.010
   01/01/2000 03:15:00      0.001     0.000     0.011    93.011
   01/01/2000 03:20:00      0.001     0.000     0.011    93.011
   01/01/2000 03:25:00      0.001     0.000     0.011    93.011
   01/01/2000 03:30:00      0.001     0.000     0.011    93.011
   01/01/2000 03:35:00      0.001     0.000     0.011    93.011
   01/01/2000 03:40:00      0.001     0.000     0.011    93.011
   01/01/2000 03:45:00      0.001     0.000     0.011    93.011
   01/01/2000 03:50:00      0.001     0.000     0.011    93.011
   01/01/2000 03:55:00      0.001     0.000     0.011    93.011
   01/01/2000 04:00:00      0.001     0.000     0.012    93.012
   01/01/2000 04:05:00      0.001     0.000     0.012    93.012
   01/01/2000 04:10:00      0.001     0.000     0.012    93.012
   01/01/2000 04:15:00      0.001     0.000     0.012    93.012
   01/01/2000 04:20:00      0.001     0.000     0.012    93.012
   01/01/2000 04:25:00      0.001     0.000     0.012    93.012
   01/01/2000 04:30:00      0.001     0.000     0.012    93.012
   01/01/2000 04:35:00      0.001     0.000     0.012    93.012
   01/01/2000 04:40:00      0.001     0.000     0.012    93.012
   01/01/2000 04:45:00      0.001     0.000     0.012    93.012
   01/01/2000 04:50:00      0.001     0.000     0.012    93.012
   01/01/2000 04:55:00      0.001     0.000     0.012    93.012
   01/01/2000 05:00:00      0.001     0.000     0.012    93.012
   01/01/2000 05:05:00      0.001     0.000     0.012    93.012
   01/01/2000 05:10:00      0.001     0.000     0.012    93.012
   01/01/2000 05:15:00      0.001     0.000     0.012    93.012
   01/01/2000 05:20:00      0.001     0.000     0.013    93.013
   01/01/2000 05:25:00      0.001     0.000     0.013    93.013
   01/01/2000 05:30:00      0.001     0.000     0.013    93.013
   01/01/2000 05:35:00      0.001     0.000     0.013    93.013
   01/01/2000 05:40:00      0.001     0.000     0.013    93.013
   01/01/2000 05:45:00      0.001     0.000     0.013    93.013
   01/01/2000 05:50:00      0.001     0.000     0.013    93.013
   01/01/2000 05:55:00      0.001     0.000     0.013    93.013
   01/01/2000 06:00:00      0.001     0.000     0.013    93.013
   01/01/2000 06:05:00      0.001     0.000     0.013    93.013
   01/01/2000 06:10:00      0.001     0.000     0.013    93.013
   01/01/2000 06:15:00      0.001     0.000     0.013    93.013
   01/01/2000 06:20:00      0.001     0.000     0.013    93.013
   01/01/2000 06:25:00      0.001     0.000     0.013    93.013
   01/01/2000 06:30:00      0.001     0.000     0.013    93.013
   01/01/2000 06:35:00      0.001     0.000     0.014    93.014
   01/01/2000 06:40:00      0.001     0.000     0.014    93.014
   01/01/2000 06:45:00      0.001     0.000     0.014    93.014
   01/01/2000 06:50:00      0.001     0.000     0.014    93.014
   01/01/2000 06:55:00      0.001     0.000     0.014    93.014
   01/01/2000 07:00:00      0.001     0.000     0.014    93.014
   01/01/2000 07:05:00      0.001     0.000     0.014    93.014
   01/01/2000 07:10:00      0.001     0.000     0.014    93.014
   01/01/2000 07:15:00      0.001     0.000     0.014    93.014
   01/01/2000 07:20:00      0.001     0.000     0.014    93.014
   01/01/2000 07:25:00      0.001     0.000     0.014    93.014
   01/01/2000 07:30:00      0.001     0.000     0.014    93.014
   01/01/2000 07:35:00      0.001     0.000     0.014    93.014
   01/01/2000 07:40:00      0.001     0.000     0.014    93.014
   01/01/2000 07:45:00      0.001     0.000     0.014    93.014
   01/01/2000 07:50:00      0.001     0.000     0.014    93.014
   01/01/2000 07:55:00      0.001     0.000     0.015    93.015
   01/01/2000 08:00:00      0.001     0.000     0.015    93.015
   01/01/2000 08:05:00      0.001     0.000     0.015    93.015
   01/01/2000 08:10:00      0.001     0.000     0.015    93.015
   01/01/2000 08:15:00      0.001     0.000     0.015    93.015
   01/01/2000 08:20:00      0.001     0.000     0.015    93.015
   01/01/2000 08:25:00      0.001     0.000     0.015    93.015
   01/01/2000 08:30:00      0.002     0.000     0.015    93.015
   01/01/2000 08:35:00      0.002     0.000     0.015    93.015
   01/01/2000 08:40:00      0.002     0.000     0.015    93.015
   01/01/2000 08:45:00      0.002     0.000     0.015    93.015
   01/01/2000 08:50:00      0.002     0.000     0.015    93.015
   01/01/2000 08:55:00      0.002     0.000     0.015    93.015
   01/01/2000 09:00:00      0.002     0.000     0.015    93.015
   01/01/2000 09:05:00      0.002     0.000     0.015    93.015
   01/01/2000 09:10:00      0.002     0.000     0.016    93.016
   01/01/2000 09:15:00      0.002     0.000     0.016    93.016
   01/01/2000 09:20:00      0.002     0.000     0.016    93.016
   01/01/2000 09:25:00      0.002     0.000     0.016    93.016
   01/01/2000 09:30:00      0.002     0.000     0.016    93.016
   01/01/2000 09:35:00      0.002     0.000     0.016    93.016
   01/01/2000 09:40:00      0.002     0.000     0.016    93.016
   01/01/2000 09:45:00      0.002     0.000     0.017    93.017
   01/01/2000 09:50:00      0.002     0.000     0.017    93.017
   01/01/2000 09:55:00      0.002     0.000     0.017    93.017
   01/01/2000 10:00:00      0.002     0.000     0.017    93.017
   01/01/2000 10:05:00      0.002     0.000     0.017    93.017
   01/01/2000 10:10:00      0.002     0.000     0.018    93.018
   01/01/2000 10:15:00      0.002     0.000     0.018    93.018
   01/01/2000 10:20:00      0.002     0.000     0.018    93.018
   01/01/2000 10:25:00      0.002     0.000     0.018    93.018
   01/01/2000 10:30:00      0.002     0.000     0.018    93.018
   01/01/2000 10:35:00      0.002     0.000     0.018    93.018
   01/01/2000 10:40:00      0.002     0.000     0.018    93.018
   01/01/2000 10:45:00      0.002     0.000     0.019    93.019
   01/01/2000 10:50:00      0.002     0.000     0.019    93.019
   01/01/2000 10:55:00      0.003     0.000     0.019    93.019
   01/01/2000 11:00:00      0.003     0.000     0.019    93.019
   01/01/2000 11:05:00      0.003     0.000     0.020    93.020
   01/01/2000 11:10:00      0.003     0.000     0.020    93.020
   01/01/2000 11:15:00      0.003     0.000     0.020    93.020
   01/01/2000 11:20:00      0.003     0.000     0.021    93.021
   01/01/2000 11:25:00      0.003     0.000     0.021    93.021
   01/01/2000 11:30:00      0.004     0.000     0.022    93.022
   01/01/2000 11:35:00      0.005     0.000     0.025    93.025
   01/01/2000 11:40:00      0.005     0.000     0.026    93.026
   01/01/2000 11:45:00      0.005     0.000     0.027    93.027
   01/01/2000 11:50:00      0.006     0.000     0.027    93.027
   01/01/2000 11:55:00      0.006     0.000     0.028    93.028
   01/01/2000 12:00:00      0.006     0.000     0.029    93.029
   01/01/2000 12:05:00      0.007     0.000     0.030    93.030
   01/01/2000 12:10:00      0.007     0.000     0.031    93.031
   01/01/2000 12:15:00      0.008     0.000     0.032    93.032
   01/01/2000 12:20:00      0.008     0.000     0.033    93.033
   01/01/2000 12:25:00      0.009     0.000     0.034    93.034
   01/01/2000 12:30:00      0.010     0.000     0.035    93.035
   01/01/2000 12:35:00      0.013     0.000     0.041    93.041
   01/01/2000 12:40:00      0.022     0.000     0.052    93.052
   01/01/2000 12:45:00      0.037     0.000     0.066    93.066
   01/01/2000 12:50:00      0.064     0.000     0.086    93.086
   01/01/2000 12:55:00      0.097     0.000     0.104    93.104
   01/01/2000 13:00:00      0.100     0.000     0.106    93.106
   01/01/2000 13:05:00      0.069     0.000     0.089    93.089
   01/01/2000 13:10:00      0.050     0.000     0.077    93.077
   01/01/2000 13:15:00      0.039     0.000     0.068    93.068
   01/01/2000 13:20:00      0.031     0.000     0.061    93.061
   01/01/2000 13:25:00      0.026     0.000     0.056    93.056
   01/01/2000 13:30:00      0.021     0.000     0.051    93.051
   01/01/2000 13:35:00      0.018     0.000     0.048    93.048
   01/01/2000 13:40:00      0.016     0.000     0.045    93.045
   01/01/2000 13:45:00      0.014     0.000     0.042    93.042
   01/01/2000 13:50:00      0.013     0.000     0.040    93.040
   01/01/2000 13:55:00      0.012     0.000     0.039    93.039
   01/01/2000 14:00:00      0.011     0.000     0.037    93.037
   01/01/2000 14:05:00      0.010     0.000     0.036    93.036
   01/01/2000 14:10:00      0.009     0.000     0.034    93.034
   01/01/2000 14:15:00      0.008     0.000     0.033    93.033
   01/01/2000 14:20:00      0.008     0.000     0.032    93.032
   01/01/2000 14:25:00      0.007     0.000     0.032    93.032
   01/01/2000 14:30:00      0.007     0.000     0.031    93.031
   01/01/2000 14:35:00      0.007     0.000     0.030    93.030
   01/01/2000 14:40:00      0.006     0.000     0.029    93.029
   01/01/2000 14:45:00      0.006     0.000     0.029    93.029
   01/01/2000 14:50:00      0.006     0.000     0.028    93.028
   01/01/2000 14:55:00      0.006     0.000     0.027    93.027
   01/01/2000 15:00:00      0.005     0.000     0.027    93.027
   01/01/2000 15:05:00      0.005     0.000     0.026    93.026
   01/01/2000 15:10:00      0.005     0.000     0.026    93.026
   01/01/2000 15:15:00      0.005     0.000     0.026    93.026
   01/01/2000 15:20:00      0.005     0.000     0.025    93.025
   01/01/2000 15:25:00      0.004     0.000     0.025    93.025
   01/01/2000 15:30:00      0.004     0.000     0.025    93.025
   01/01/2000 15:35:00      0.004     0.000     0.024    93.024
   01/01/2000 15:40:00      0.004     0.000     0.024    93.024
   01/01/2000 15:45:00      0.004     0.000     0.024    93.024
   01/01/2000 15:50:00      0.004     0.000     0.023    93.023
   01/01/2000 15:55:00      0.004     0.000     0.023    93.023
   01/01/2000 16:00:00      0.004     0.000     0.023    93.023
   01/01/2000 16:05:00      0.004     0.000     0.023    93.023
   01/01/2000 16:10:00      0.004     0.000     0.023    93.023
   01/01/2000 16:15:00      0.004     0.000     0.022    93.022
   01/01/2000 16:20:00      0.003     0.000     0.022    93.022
   01/01/2000 16:25:00      0.003     0.000     0.022    93.022
   01/01/2000 16:30:00      0.003     0.000     0.022    93.022
   01/01/2000 16:35:00      0.003     0.000     0.022    93.022
   01/01/2000 16:40:00      0.003     0.000     0.021    93.021
   01/01/2000 16:45:00      0.003     0.000     0.021    93.021
   01/01/2000 16:50:00      0.003     0.000     0.021    93.021
   01/01/2000 16:55:00      0.003     0.000     0.021    93.021
   01/01/2000 17:00:00      0.003     0.000     0.021    93.021
   01/01/2000 17:05:00      0.003     0.000     0.020    93.020
   01/01/2000 17:10:00      0.003     0.000     0.020    93.020
   01/01/2000 17:15:00      0.003     0.000     0.020    93.020
   01/01/2000 17:20:00      0.003     0.000     0.020    93.020
   01/01/2000 17:25:00      0.003     0.000     0.020    93.020
   01/01/2000 17:30:00      0.003     0.000     0.020    93.020
   01/01/2000 17:35:00      0.003     0.000     0.019    93.019
   01/01/2000 17:40:00      0.003     0.000     0.019    93.019
   01/01/2000 17:45:00      0.003     0.000     0.019    93.019
   01/01/2000 17:50:00      0.003     0.000     0.019    93.019
   01/01/2000 17:55:00      0.002     0.000     0.019    93.019
   01/01/2000 18:00:00      0.002     0.000     0.019    93.019
   01/01/2000 18:05:00      0.002     0.000     0.019    93.019
   01/01/2000 18:10:00      0.002     0.000     0.019    93.019
   01/01/2000 18:15:00      0.002     0.000     0.019    93.019
   01/01/2000 18:20:00      0.002     0.000     0.018    93.018
   01/01/2000 18:25:00      0.002     0.000     0.018    93.018
   01/01/2000 18:30:00      0.002     0.000     0.018    93.018
   01/01/2000 18:35:00      0.002     0.000     0.018    93.018
   01/01/2000 18:40:00      0.002     0.000     0.018    93.018
   01/01/2000 18:45:00      0.002     0.000     0.018    93.018
   01/01/2000 18:50:00      0.002     0.000     0.018    93.018
   01/01/2000 18:55:00      0.002     0.000     0.018    93.018
   01/01/2000 19:00:00      0.002     0.000     0.018    93.018
   01/01/2000 19:05:00      0.002     0.000     0.018    93.018
   01/01/2000 19:10:00      0.002     0.000     0.018    93.018
   01/01/2000 19:15:00      0.002     0.000     0.017    93.017
   01/01/2000 19:20:00      0.002     0.000     0.017    93.017
   01/01/2000 19:25:00      0.002     0.000     0.017    93.017
   01/01/2000 19:30:00      0.002     0.000     0.017    93.017
   01/01/2000 19:35:00      0.002     0.000     0.017    93.017
   01/01/2000 19:40:00      0.002     0.000     0.017    93.017
   01/01/2000 19:45:00      0.002     0.000     0.017    93.017
   01/01/2000 19:50:00      0.002     0.000     0.017    93.017
   01/01/2000 19:55:00      0.002     0.000     0.017    93.017
   01/01/2000 20:00:00      0.002     0.000     0.017    93.017
   01/01/2000 20:05:00      0.002     0.000     0.017    93.017
   01/01/2000 20:10:00      0.002     0.000     0.016    93.016
   01/01/2000 20:15:00      0.002     0.000     0.016    93.016
   01/01/2000 20:20:00      0.002     0.000     0.016    93.016
   01/01/2000 20:25:00      0.002     0.000     0.016    93.016
   01/01/2000 20:30:00      0.002     0.000     0.016    93.016
   01/01/2000 20:35:00      0.002     0.000     0.016    93.016
   01/01/2000 20:40:00      0.002     0.000     0.016    93.016
   01/01/2000 20:45:00      0.002     0.000     0.016    93.016
   01/01/2000 20:50:00      0.002     0.000     0.016    93.016
   01/01/2000 20:55:00      0.002     0.000     0.016    93.016
   01/01/2000 21:00:00      0.002     0.000     0.016    93.016
   01/01/2000 21:05:00      0.002     0.000     0.015    93.015
   01/01/2000 21:10:00      0.002     0.000     0.015    93.015
   01/01/2000 21:15:00      0.002     0.000     0.015    93.015
   01/01/2000 21:20:00      0.002     0.000     0.015    93.015
   01/01/2000 21:25:00      0.002     0.000     0.015    93.015
   01/01/2000 21:30:00      0.002     0.000     0.015    93.015
   01/01/2000 21:35:00      0.002     0.000     0.015    93.015
   01/01/2000 21:40:00      0.001     0.000     0.015    93.015
   01/01/2000 21:45:00      0.001     0.000     0.015    93.015
   01/01/2000 21:50:00      0.001     0.000     0.015    93.015
   01/01/2000 21:55:00      0.001     0.000     0.015    93.015
   01/01/2000 22:00:00      0.001     0.000     0.015    93.015
   01/01/2000 22:05:00      0.001     0.000     0.015    93.015
   01/01/2000 22:10:00      0.001     0.000     0.015    93.015
   01/01/2000 22:15:00      0.001     0.000     0.015    93.015
   01/01/2000 22:20:00      0.001     0.000     0.015    93.015
   01/01/2000 22:25:00      0.001     0.000     0.015    93.015
   01/01/2000 22:30:00      0.001     0.000     0.015    93.015
   01/01/2000 22:35:00      0.001     0.000     0.014    93.014
   01/01/2000 22:40:00      0.001     0.000     0.014    93.014
   01/01/2000 22:45:00      0.001     0.000     0.014    93.014
   01/01/2000 22:50:00      0.001     0.000     0.014    93.014
   01/01/2000 22:55:00      0.001     0.000     0.014    93.014
   01/01/2000 23:00:00      0.001     0.000     0.014    93.014
   01/01/2000 23:05:00      0.001     0.000     0.014    93.014
   01/01/2000 23:10:00      0.001     0.000     0.014    93.014
   01/01/2000 23:15:00      0.001     0.000     0.014    93.014
   01/01/2000 23:20:00      0.001     0.000     0.014    93.014
   01/01/2000 23:25:00      0.001     0.000     0.014    93.014
   01/01/2000 23:30:00      0.001     0.000     0.014    93.014
   01/01/2000 23:35:00      0.001     0.000     0.014    93.014
   01/01/2000 23:40:00      0.001     0.000     0.014    93.014
   01/01/2000 23:45:00      0.001     0.000     0.014    93.014
   01/01/2000 23:50:00      0.001     0.000     0.014    93.014
   01/01/2000 23:55:00      0.001     0.000     0.014    93.014
   01/02/2000 00:00:00      0.001     0.000     0.014    93.014
  
  
  <<< Node J1 >>>
  ----------------------------------------------------------------
                           Inflow  Flooding     Depth      Head
  Date        Time            CMS       CMS    meters    meters
  ----------------------------------------------------------------
   01/01/2000 00:05:00      0.000     0.000     0.000    96.000
   01/01/2000 00:10:00      0.000     0.000     0.000    96.000
   01/01/2000 00:15:00      0.000     0.000     0.000    96.000
   01/01/2000 00:20:00      0.000     0.000     0.000    96.000
   01/01/2000 00:25:00      0.000     0.000     0.000    96.000
   01/01/2000 00:30:00      0.000     0.000     0.000    96.000
   01/01/2000 00:35:00      0.000     0.000     0.000    96.000
   01/01/2000 00:40:00      0.000     0.000     0.000    96.000
   01/01/2000 00:45:00      0.000     0.000     0.000    96.000
   01/01/2000 00:50:00      0.000     0.000     0.000    96.000
   01/01/2000 00:55:00      0.000     0.000     0.000    96.000
   01/01/2000 01:00:00      0.000     0.000     0.000    96.000
   01/01/2000 01:05:00      0.000     0.000     0.000    96.000
   01/01/2000 01:10:00      0.000     0.000     0.001    96.001
   01/01/2000 01:15:00      0.000     0.000     0.001    96.001
   01/01/2000 01:20:00      0.000     0.000     0.001    96.001
   01/01/2000 01:25:00      0.000     0.000     0.001    96.001
   01/01/2000 01:30:00      0.000     0.000     0.001    96.001
   01/01/2000 01:35:00      0.000     0.000     0.001    96.001
   01/01/2000 01:40:00      0.000     0.000     0.002    96.002
   01/01/2000 01:45:00      0.000     0.000     0.002    96.002
   01/01/2000 01:50:00      0.000     0.000     0.002    96.002
   01/01/2000 01:55:00      0.000     0.000     0.002    96.002
   01/01/2000 02:00:00      0.000     0.000     0.002    96.002
   01/01/2000 02:05:00      0.000     0.000     0.003    96.003
   01/01/2000 02:10:00      0.000     0.000     0.003    96.003
   01/01/2000 02:15:00      0.000     0.000     0.003    96.003
   01/01/2000 02:20:00      0.000     0.000     0.003    96.003
   01/01/2000 02:25:00      0.001     0.000     0.004    96.004
   01/01/2000 02:30:00      0.001     0.000     0.004    96.004
   01/01/2000 02:35:00      0.001     0.000     0.004    96.004
   01/01/2000 02:40:00      0.001     0.000     0.004    96.004
   01/01/2000 02:45:00      0.001     0.000     0.005    96.005
   01/01/2000 02:50:00      0.001     0.000     0.005    96.005
   01/01/2000 02:55:00      0.001     0.000     0.005    96.005
   01/01/2000 03:00:00      0.001     0.000     0.005    96.005
   01/01/2000 03:05:00      0.001     0.000     0.005    96.005
   01/01/2000 03:10:00      0.001     0.000     0.005    96.005
   01/01/2000 03:15:00      0.001     0.000     0.005    96.005
   01/01/2000 03:20:00      0.001     0.000     0.005    96.005
   01/01/2000 03:25:00      0.001     0.000     0.005    96.005
   01/01/2000 03:30:00      0.001     0.000     0.005    96.005
   01/01/2000 03:35:00      0.001     0.000     0.005    96.005
   01/01/2000 03:40:00      0.001     0.000     0.005    96.005
   01/01/2000 03:45:00      0.001     0.000     0.005    96.005
   01/01/2000 03:50:00      0.001     0.000     0.005    96.005
   01/01/2000 03:55:00      0.001     0.000     0.005    96.006
   01/01/2000 04:00:00      0.001     0.000     0.006    96.006
   01/01/2000 04:05:00      0.001     0.000     0.006    96.006
   01/01/2000 04:10:00      0.001     0.000     0.006    96.006
   01/01/2000 04:15:00      0.001     0.000     0.006    96.006
   01/01/2000 04:20:00      0.001     0.000     0.006    96.006
   01/01/2000 04:25:00      0.001     0.000     0.006    96.006
   01/01/2000 04:30:00      0.001     0.000     0.006    96.006
   01/01/2000 04:35:00      0.001     0.000     0.006    96.006
   01/01/2000 04:40:00      0.001     0.000     0.006    96.006
   01/01/2000 04:45:00      0.001     0.000     0.006    96.006
   01/01/2000 04:50:00      0.001     0.000     0.006    96.006
   01/01/2000 04:55:00      0.001     0.000     0.006    96.006
   01/01/2000 05:00:00      0.001     0.000     0.006    96.006
   01/01/2000 05:05:00      0.002     0.000     0.006    96.006
   01/01/2000 05:10:00      0.002     0.000     0.006    96.006
   01/01/2000 05:15:00      0.002     0.000     0.006    96.006
   01/01/2000 05:20:00      0.002     0.000     0.006    96.006
   01/01/2000 05:25:00      0.002     0.000     0.006    96.006
   01/01/2000 05:30:00      0.002     0.000     0.006    96.006
   01/01/2000 05:35:00      0.002     0.000     0.006    96.006
   01/01/2000 05:40:00      0.002     0.000     0.006    96.006
   01/01/2000 05:45:00      0.002     0.000     0.006    96.006
[...]
   01/01/2000 22:35:00      0.003     0.342     0.033     0.010
   01/01/2000 22:40:00      0.003     0.342     0.033     0.010
   01/01/2000 22:45:00      0.003     0.341     0.033     0.010
   01/01/2000 22:50:00      0.003     0.341     0.033     0.010
   01/01/2000 22:55:00      0.003     0.340     0.033     0.010
   01/01/2000 23:00:00      0.003     0.339     0.033     0.010
   01/01/2000 23:05:00      0.003     0.339     0.033     0.010
   01/01/2000 23:10:00      0.003     0.338     0.032     0.010
   01/01/2000 23:15:00      0.003     0.338     0.032     0.010
   01/01/2000 23:20:00      0.003     0.337     0.032     0.010
   01/01/2000 23:25:00      0.003     0.337     0.032     0.010
   01/01/2000 23:30:00      0.003     0.336     0.032     0.010
   01/01/2000 23:35:00      0.003     0.336     0.032     0.010
   01/01/2000 23:40:00      0.003     0.335     0.032     0.010
   01/01/2000 23:45:00      0.003     0.335     0.032     0.010
   01/01/2000 23:50:00      0.003     0.335     0.032     0.010
   01/01/2000 23:55:00      0.003     0.334     0.032     0.010
   01/02/2000 00:00:00      0.003     0.334     0.032     0.010
  
  
  <<< Link C1 >>>
  ----------------------------------------------------------------
                             Flow  Velocity     Depth  Capacity/
  Date        Time            CMS     m/sec    meters   Setting 
  ----------------------------------------------------------------
   01/01/2000 00:05:00      0.000     0.000     0.000     0.000
   01/01/2000 00:10:00      0.000     0.000     0.000     0.000
   01/01/2000 00:15:00      0.000     0.000     0.000     0.000
   01/01/2000 00:20:00      0.000     0.000     0.000     0.000
   01/01/2000 00:25:00      0.000     0.000     0.000     0.000
   01/01/2000 00:30:00      0.000     0.000     0.000     0.000
   01/01/2000 00:35:00      0.000     0.000     0.000     0.000
   01/01/2000 00:40:00      0.000     0.000     0.000     0.000
   01/01/2000 00:45:00      0.000     0.000     0.000     0.000
   01/01/2000 00:50:00      0.000     0.000     0.000     0.000
   01/01/2000 00:55:00      0.000     0.000     0.000     0.000
   01/01/2000 01:00:00      0.000     0.000     0.000     0.000
   01/01/2000 01:05:00      0.000     0.000     0.000     0.000
   01/01/2000 01:10:00      0.000     0.000     0.000     0.000
   01/01/2000 01:15:00      0.000     0.000     0.000     0.000
   01/01/2000 01:20:00      0.000     0.000     0.000     0.000
   01/01/2000 01:25:00      0.000     0.000     0.001     0.000
   01/01/2000 01:30:00      0.000     0.000     0.001     0.000
   01/01/2000 01:35:00      0.000     0.000     0.001     0.000
   01/01/2000 01:40:00      0.000     0.000     0.001     0.000
   01/01/2000 01:45:00      0.000     0.000     0.002     0.000
   01/01/2000 01:50:00      0.000     0.000     0.002     0.000
   01/01/2000 01:55:00      0.000     0.000     0.002     0.000
   01/01/2000 02:00:00      0.000     0.000     0.002     0.000
   01/01/2000 02:05:00      0.000     0.000     0.002     0.000
   01/01/2000 02:10:00      0.000     0.000     0.003     0.000
   01/01/2000 02:15:00      0.000     0.000     0.003     0.000
   01/01/2000 02:20:00      0.000     0.956     0.003     0.000
   01/01/2000 02:25:00      0.000     1.076     0.004     0.001
   01/01/2000 02:30:00      0.001     1.190     0.004     0.001
   01/01/2000 02:35:00      0.001     1.284     0.004     0.001
   01/01/2000 02:40:00      0.001     1.355     0.004     0.001
   01/01/2000 02:45:00      0.001     1.413     0.005     0.001
   01/01/2000 02:50:00      0.001     1.457     0.005     0.001
   01/01/2000 02:55:00      0.001     1.496     0.005     0.001
   01/01/2000 03:00:00      0.001     1.530     0.005     0.001
   01/01/2000 03:05:00      0.001     1.559     0.005     0.001
   01/01/2000 03:10:00      0.001     1.586     0.005     0.001
   01/01/2000 03:15:00      0.001     1.608     0.005     0.001
   01/01/2000 03:20:00      0.001     1.631     0.005     0.001
   01/01/2000 03:25:00      0.001     1.649     0.005     0.001
   01/01/2000 03:30:00      0.001     1.667     0.005     0.001
   01/01/2000 03:35:00      0.001     1.684     0.005     0.001
   01/01/2000 03:40:00      0.001     1.698     0.005     0.001
   01/01/2000 03:45:00      0.001     1.713     0.005     0.001
   01/01/2000 03:50:00      0.001     1.724     0.005     0.001
   01/01/2000 03:55:00      0.001     1.737     0.005     0.001
   01/01/2000 04:00:00      0.001     1.748     0.006     0.001
   01/01/2000 04:05:00      0.001     1.758     0.006     0.001
   01/01/2000 04:10:00      0.001     1.769     0.006     0.001
   01/01/2000 04:15:00      0.001     1.777     0.006     0.001
   01/01/2000 04:20:00      0.001     1.787     0.006     0.001
   01/01/2000 04:25:00      0.001     1.796     0.006     0.001
   01/01/2000 04:30:00      0.001     1.804     0.006     0.001
   01/01/2000 04:35:00      0.001     1.818     0.006     0.001
   01/01/2000 04:40:00      0.001     1.852     0.006     0.001
   01/01/2000 04:45:00      0.001     1.873     0.006     0.001
   01/01/2000 04:50:00      0.001     1.884     0.006     0.001
   01/01/2000 04:55:00      0.001     1.893     0.006     0.001
   01/01/2000 05:00:00      0.001     1.901     0.006     0.001
   01/01/2000 05:05:00      0.001     1.907     0.006     0.001
   01/01/2000 05:10:00      0.002     1.914     0.006     0.001
   01/01/2000 05:15:00      0.002     1.922     0.006     0.001
   01/01/2000 05:20:00      0.002     1.930     0.006     0.001
   01/01/2000 05:25:00      0.002     1.939     0.006     0.001
   01/01/2000 05:30:00      0.002     1.948     0.006     0.001
   01/01/2000 05:35:00      0.002     1.958     0.006     0.001
   01/01/2000 05:40:00      0.002     1.967     0.006     0.001
   01/01/2000 05:45:00      0.002     1.977     0.006     0.001
   01/01/2000 05:50:00      0.002     1.987     0.006     0.001
   01/01/2000 05:55:00      0.002     1.997     0.006     0.001
   01/01/2000 06:00:00      0.002     2.006     0.006     0.001
   01/01/2000 06:05:00      0.002     2.016     0.006     0.001
   01/01/2000 06:10:00      0.002     2.026     0.006     0.001
   01/01/2000 06:15:00      0.002     2.036     0.006     0.001
   01/01/2000 06:20:00      0.002     2.046     0.006     0.001
   01/01/2000 06:25:00      0.002     2.055     0.007     0.001
   01/01/2000 06:30:00      0.002     2.065     0.007     0.001
   01/01/2000 06:35:00      0.002     2.075     0.007     0.001
   01/01/2000 06:40:00      0.002     2.084     0.007     0.001
   01/01/2000 06:45:00      0.002     2.094     0.007     0.001
   01/01/2000 06:50:00      0.002     2.103     0.007     0.001
   01/01/2000 06:55:00      0.002     2.113     0.007     0.001
   01/01/2000 07:00:00      0.002     2.122     0.007     0.001
   01/01/2000 07:05:00      0.002     2.131     0.007     0.001
   01/01/2000 07:10:00      0.002     2.141     0.007     0.001
   01/01/2000 07:15:00      0.002     2.150     0.007     0.001
   01/01/2000 07:20:00      0.002     2.159     0.007     0.001
   01/01/2000 07:25:00      0.002     2.168     0.007     0.001
   01/01/2000 07:30:00      0.002     2.177     0.007     0.001
   01/01/2000 07:35:00      0.002     2.186     0.007     0.001
   01/01/2000 07:40:00      0.002     2.195     0.007     0.001
   01/01/2000 07:45:00      0.002     2.204     0.007     0.001
   01/01/2000 07:50:00      0.002     2.213     0.007     0.001
   01/01/2000 07:55:00      0.002     2.222     0.007     0.001
   01/01/2000 08:00:00      0.002     2.231     0.007     0.001
   01/01/2000 08:05:00      0.002     2.240     0.007     0.001
   01/01/2000 08:10:00      0.002     2.248     0.007     0.001
   01/01/2000 08:15:00      0.002     2.257     0.007     0.001
   01/01/2000 08:20:00      0.002     2.266     0.007     0.001
   01/01/2000 08:25:00      0.002     2.274     0.007     0.001
   01/01/2000 08:30:00      0.002     2.283     0.007     0.001
   01/01/2000 08:35:00      0.002     2.291     0.007     0.001
   01/01/2000 08:40:00      0.002     2.299     0.007     0.001
   01/01/2000 08:45:00      0.002     2.308     0.007     0.001
   01/01/2000 08:50:00      0.002     2.316     0.007     0.001
   01/01/2000 08:55:00      0.002     2.324     0.007     0.001
   01/01/2000 09:00:00      0.002     2.333     0.007     0.001
   01/01/2000 09:05:00      0.002     2.343     0.007     0.001
   01/01/2000 09:10:00      0.002     2.359     0.008     0.001
   01/01/2000 09:15:00      0.002     2.382     0.008     0.001
   01/01/2000 09:20:00      0.003     2.408     0.008     0.001
   01/01/2000 09:25:00      0.003     2.437     0.008     0.001
   01/01/2000 09:30:00      0.003     2.467     0.008     0.001
   01/01/2000 09:35:00      0.003     2.498     0.008     0.001
   01/01/2000 09:40:00      0.003     2.529     0.008     0.001
   01/01/2000 09:45:00      0.003     2.561     0.008     0.001
   01/01/2000 09:50:00      0.003     2.594     0.008     0.001
   01/01/2000 09:55:00      0.003     2.626     0.008     0.002
   01/01/2000 10:00:00      0.003     2.659     0.009     0.002
   01/01/2000 10:05:00      0.003     2.688     0.009     0.002
   01/01/2000 10:10:00      0.003     2.711     0.009     0.002
   01/01/2000 10:15:00      0.003     2.727     0.009     0.002
   01/01/2000 10:20:00      0.003     2.739     0.009     0.002
   01/01/2000 10:25:00      0.003     2.748     0.009     0.002
   01/01/2000 10:30:00      0.003     2.756     0.009     0.002
   01/01/2000 10:35:00      0.003     2.767     0.009     0.002
   01/01/2000 10:40:00      0.004     2.786     0.009     0.002
   01/01/2000 10:45:00      0.004     2.814     0.009     0.002
   01/01/2000 10:50:00      0.004     2.848     0.009     0.002
   01/01/2000 10:55:00      0.004     2.884     0.009     0.002
   01/01/2000 11:00:00      0.004     2.922     0.009     0.002
   01/01/2000 11:05:00      0.004     2.964     0.010     0.002
   01/01/2000 11:10:00      0.004     3.010     0.010     0.002
   01/01/2000 11:15:00      0.004     3.062     0.010     0.002
   01/01/2000 11:20:00      0.005     3.115     0.010     0.002
   01/01/2000 11:25:00      0.005     3.170     0.010     0.002
   01/01/2000 11:30:00      0.005     3.225     0.011     0.002
   01/01/2000 11:35:00      0.005     3.285     0.011     0.002
   01/01/2000 11:40:00      0.006     3.351     0.011     0.002
   01/01/2000 11:45:00      0.006     3.424     0.011     0.002
   01/01/2000 11:50:00      0.006     3.500     0.012     0.002
   01/01/2000 11:55:00      0.007     3.576     0.012     0.002
   01/01/2000 12:00:00      0.007     3.652     0.012     0.002
   01/01/2000 12:05:00      0.007     3.742     0.013     0.003
   01/01/2000 12:10:00      0.008     3.852     0.013     0.003
   01/01/2000 12:15:00      0.009     3.979     0.014     0.003
   01/01/2000 12:20:00      0.009     4.112     0.014     0.003
   01/01/2000 12:25:00      0.010     4.244     0.015     0.003
   01/01/2000 12:30:00      0.011     4.376     0.015     0.003
   01/01/2000 12:35:00      0.017     4.977     0.019     0.004
   01/01/2000 12:40:00      0.030     5.861     0.024     0.006
   01/01/2000 12:45:00      0.050     6.897     0.031     0.009
   01/01/2000 12:50:00      0.082     8.036     0.039     0.013
   01/01/2000 12:55:00      0.127     9.342     0.047     0.017
   01/01/2000 13:00:00      0.110     8.958     0.044     0.016
   01/01/2000 13:05:00      0.063     7.854     0.033     0.010
   01/01/2000 13:10:00      0.038     6.607     0.027     0.007
   01/01/2000 13:15:00      0.029     6.037     0.023     0.006
   01/01/2000 13:20:00      0.023     5.661     0.021     0.005
   01/01/2000 13:25:00      0.019     5.350     0.019     0.004
   01/01/2000 13:30:00      0.016     5.044     0.018     0.004
   01/01/2000 13:35:00      0.014     4.766     0.017     0.004
   01/01/2000 13:40:00      0.012     4.541     0.016     0.003
   01/01/2000 13:45:00      0.011     4.370     0.015     0.003
   01/01/2000 13:50:00      0.010     4.227     0.014     0.003
   01/01/2000 13:55:00      0.009     4.101     0.014     0.003
   01/01/2000 14:00:00      0.009     3.988     0.013     0.003
   01/01/2000 14:05:00      0.008     3.884     0.013     0.003
   01/01/2000 14:10:00      0.007     3.791     0.013     0.003
   01/01/2000 14:15:00      0.007     3.711     0.012     0.002
   01/01/2000 14:20:00      0.007     3.637     0.012     0.002
   01/01/2000 14:25:00      0.006     3.568     0.012     0.002
   01/01/2000 14:30:00      0.006     3.501     0.012     0.002
   01/01/2000 14:35:00      0.006     3.437     0.011     0.002
   01/01/2000 14:40:00      0.006     3.376     0.011     0.002
   01/01/2000 14:45:00      0.005     3.320     0.011     0.002
   01/01/2000 14:50:00      0.005     3.266     0.011     0.002
   01/01/2000 14:55:00      0.005     3.213     0.010     0.002
   01/01/2000 15:00:00      0.005     3.160     0.010     0.002
   01/01/2000 15:05:00      0.005     3.111     0.010     0.002
   01/01/2000 15:10:00      0.004     3.068     0.010     0.002
   01/01/2000 15:15:00      0.004     3.032     0.010     0.002
   01/01/2000 15:20:00      0.004     3.001     0.010     0.002
   01/01/2000 15:25:00      0.004     2.971     0.010     0.002
   01/01/2000 15:30:00      0.004     2.945     0.010     0.002
   01/01/2000 15:35:00      0.004     2.920     0.009     0.002
   01/01/2000 15:40:00      0.004     2.895     0.009     0.002
   01/01/2000 15:45:00      0.004     2.872     0.009     0.002
   01/01/2000 15:50:00      0.004     2.847     0.009     0.002
   01/01/2000 15:55:00      0.004     2.826     0.009     0.002
   01/01/2000 16:00:00      0.004     2.802     0.009     0.002
   01/01/2000 16:05:00      0.004     2.780     0.009     0.002
   01/01/2000 16:10:00      0.003     2.758     0.009     0.002
   01/01/2000 16:15:00      0.003     2.735     0.009     0.002
   01/01/2000 16:20:00      0.003     2.713     0.009     0.002
   01/01/2000 16:25:00      0.003     2.689     0.009     0.002
   01/01/2000 16:30:00      0.003     2.667     0.009     0.002
   01/01/2000 16:35:00      0.003     2.644     0.008     0.002
   01/01/2000 16:40:00      0.003     2.620     0.008     0.001
   01/01/2000 16:45:00      0.003     2.597     0.008     0.001
   01/01/2000 16:50:00      0.003     2.573     0.008     0.001
   01/01/2000 16:55:00      0.003     2.550     0.008     0.001
   01/01/2000 17:00:00      0.003     2.525     0.008     0.001
   01/01/2000 17:05:00      0.003     2.501     0.008     0.001
   01/01/2000 17:10:00      0.003     2.481     0.008     0.001
   01/01/2000 17:15:00      0.003     2.463     0.008     0.001
   01/01/2000 17:20:00      0.003     2.448     0.008     0.001
   01/01/2000 17:25:00      0.003     2.433     0.008     0.001
   01/01/2000 17:30:00      0.003     2.420     0.008     0.001
   01/01/2000 17:35:00      0.003     2.407     0.008     0.001
   01/01/2000 17:40:00      0.002     2.395     0.008     0.001
   01/01/2000 17:45:00      0.002     2.383     0.008     0.001
   01/01/2000 17:50:00      0.002     2.371     0.008     0.001
   01/01/2000 17:55:00      0.002     2.360     0.007     0.001
   01/01/2000 18:00:00      0.002     2.349     0.007     0.001
   01/01/2000 18:05:00      0.002     2.338     0.007     0.001
   01/01/2000 18:10:00      0.002     2.328     0.007     0.001
   01/01/2000 18:15:00      0.002     2.316     0.007     0.001
   01/01/2000 18:20:00      0.002     2.306     0.007     0.001
   01/01/2000 18:25:00      0.002     2.295     0.007     0.001
   01/01/2000 18:30:00      0.002     2.285     0.007     0.001
   01/01/2000 18:35:00      0.002     2.274     0.007     0.001
   01/01/2000 18:40:00      0.002     2.263     0.007     0.001
   01/01/2000 18:45:00      0.002     2.253     0.007     0.001
   01/01/2000 18:50:00      0.002     2.242     0.007     0.001
   01/01/2000 18:55:00      0.002     2.232     0.007     0.001
   01/01/2000 19:00:00      0.002     2.221     0.007     0.001
   01/01/2000 19:05:00      0.002     2.210     0.007     0.001
   01/01/2000 19:10:00      0.002     2.199     0.007     0.001
   01/01/2000 19:15:00      0.002     2.188     0.007     0.001
   01/01/2000 19:20:00      0.002     2.177     0.007     0.001
   01/01/2000 19:25:00      0.002     2.166     0.007     0.001
   01/01/2000 19:30:00      0.002     2.155     0.007     0.001
   01/01/2000 19:35:00      0.002     2.144     0.007     0.001
   01/01/2000 19:40:00      0.002     2.132     0.007     0.001
   01/01/2000 19:45:00      0.002     2.122     0.007     0.001
   01/01/2000 19:50:00      0.002     2.110     0.007     0.001
   01/01/2000 19:55:00      0.002     2.099     0.007     0.001
   01/01/2000 20:00:00      0.002     2.088     0.007     0.001
   01/01/2000 20:05:00      0.002     2.076     0.007     0.001
   01/01/2000 20:10:00      0.002     2.065     0.007     0.001
   01/01/2000 20:15:00      0.002     2.053     0.006     0.001
   01/01/2000 20:20:00      0.002     2.042     0.006     0.001
   01/01/2000 20:25:00      0.002     2.029     0.006     0.001
   01/01/2000 20:30:00      0.002     2.017     0.006     0.001
   01/01/2000 20:35:00      0.002     2.006     0.006     0.001
   01/01/2000 20:40:00      0.002     1.993     0.006     0.001
   01/01/2000 20:45:00      0.002     1.981     0.006     0.001
   01/01/2000 20:50:00      0.002     1.968     0.006     0.001
   01/01/2000 20:55:00      0.002     1.956     0.006     0.001
   01/01/2000 21:00:00      0.002     1.943     0.006     0.001
   01/01/2000 21:05:00      0.002     1.931     0.006     0.001
   01/01/2000 21:10:00      0.002     1.920     0.006     0.001
   01/01/2000 21:15:00      0.001     1.910     0.006     0.001
   01/01/2000 21:20:00      0.001     1.903     0.006     0.001
   01/01/2000 21:25:00      0.001     1.896     0.006     0.001
   01/01/2000 21:30:00      0.001     1.890     0.006     0.001
   01/01/2000 21:35:00      0.001     1.885     0.006     0.001
   01/01/2000 21:40:00      0.001     1.879     0.006     0.001
   01/01/2000 21:45:00      0.001     1.875     0.006     0.001
   01/01/2000 21:50:00      0.001     1.870     0.006     0.001
   01/01/2000 21:55:00      0.001     1.866     0.006     0.001
   01/01/2000 22:00:00      0.001     1.862     0.006     0.001
   01/01/2000 22:05:00      0.001     1.857     0.006     0.001
   01/01/2000 22:10:00      0.001     1.854     0.006     0.001
   01/01/2000 22:15:00      0.001     1.850     0.006     0.001
   01/01/2000 22:20:00      0.001     1.847     0.006     0.001
   01/01/2000 22:25:00      0.001     1.843     0.006     0.001
   01/01/2000 22:30:00      0.001     1.840     0.006     0.001
   01/01/2000 22:35:00      0.001     1.837     0.006     0.001
   01/01/2000 22:40:00      0.001     1.833     0.006     0.001
   01/01/2000 22:45:00      0.001     1.831     0.006     0.001
   01/01/2000 22:50:00      0.001     1.827     0.006     0.001
   01/01/2000 22:55:00      0.001     1.824     0.006     0.001
   01/01/2000 23:00:00      0.001     1.821     0.006     0.001
   01/01/2000 23:05:00      0.001     1.818     0.006     0.001
   01/01/2000 23:10:00      0.001     1.816     0.006     0.001
   01/01/2000 23:15:00      0.001     1.812     0.006     0.001
   01/01/2000 23:20:00      0.001     1.810     0.006     0.001
   01/01/2000 23:25:00      0.001     1.806     0.006     0.001
   01/01/2000 23:30:00      0.001     1.803     0.006     0.001
   01/01/2000 23:35:00      0.001     1.801     0.006     0.001
   01/01/2000 23:40:00      0.001     1.797     0.006     0.001
   01/01/2000 23:45:00      0.001     1.795     0.006     0.001
   01/01/2000 23:50:00      0.001     1.791     0.006     0.001
   01/01/2000 23:55:00      0.001     1.789     0.006     0.001
   01/02/2000 00:00:00      0.001     1.786     0.006     0.001
  

  Analysis begun on:  Fri Dec  6 15:27:18 2019
  Analysis ended on:  Fri Dec  6 15:27:18 2019
  Total elapsed time: < 1 sec