
  EPA STORM WATER MANAGEMENT MODEL - VERSION 5.1 (Build 5.1.013)
  --------------------------------------------------------------

  Scenario Run: BASE 
  
  
  *********************
  Rainfall File Summary
  *********************
  Station    First        Last         Recording   Periods    Periods    Periods
  ID         Date         Date         Frequency  w/Precip    Missing    Malfunc.
  -------------------------------------------------------------------------------
  rg_1       01/01/2000   01/02/2000      60 min       241          0          0

  
  *********************************************************
  NOTE: The summary statistics displayed in this report are
  based on results found at every computational time step,  
  not just on results from each reporting time step.
  *********************************************************
  
  ****************
  Analysis Options
  ****************
  Flow Units ............... CMS
  Process Models:
    Rainfall/Runoff ........ YES
    RDII ................... NO
    Snowmelt ............... NO
    Groundwater ............ NO
    Flow Routing ........... YES
    Ponding Allowed ........ NO
    Water Quality .......... NO
  Infiltration Method ...... MODIFIED_GREEN_AMPT
  Flow Routing Method ...... KINWAVE
  Starting Date ............ 01/01/2000 01:00:00
  Ending Date .............. 01/01/2000 23:00:00
  Antecedent Dry Days ...... 5.0
  Report Time Step ......... 00:05:00
  Wet Time Step ............ 00:15:00
  Dry Time Step ............ 01:00:00
  Routing Time Step ........ 60.00 sec
  
  
  **************************        Volume         Depth
  Runoff Quantity Continuity     hectare-m            mm
  **************************     ---------       -------
  Total Precipitation ......         3.986         9.770
  Evaporation Loss .........         0.000         0.000
  Infiltration Loss ........         3.780         9.264
  Surface Runoff ...........         0.176         0.432
  Final Storage ............         0.031         0.076
  Continuity Error (%) .....        -0.011
  
  
  **************************        Volume        Volume
  Flow Routing Continuity        hectare-m      10^6 ltr
  **************************     ---------     ---------
  Dry Weather Inflow .......         0.000         0.000
  Wet Weather Inflow .......         0.176         1.758
  Groundwater Inflow .......         0.000         0.000
  RDII Inflow ..............         0.000         0.000
  External Inflow ..........         0.000         0.000
  External Outflow .........         0.000         0.000
  Flooding Loss ............         0.173         1.732
  Evaporation Loss .........         0.000         0.000
  Exfiltration Loss ........         0.000         0.000
  Initial Stored Volume ....         0.000         0.000
  Final Stored Volume ......         0.002         0.019
  Continuity Error (%) .....         0.369
  
  
  ********************************
  Highest Flow Instability Indexes
  ********************************
  All links are stable.
  
  
  *************************
  Routing Time Step Summary
  *************************
  Minimum Time Step           :    60.00 sec
  Average Time Step           :    60.00 sec
  Maximum Time Step           :    60.00 sec
  Percent in Steady State     :     0.00
  Average Iterations per Step :     1.04
  Percent Not Converging      :     0.00
  
  
  ***************************
  Subcatchment Runoff Summary
  ***************************
  
  ------------------------------------------------------------------------------------------------------------------------------
                            Total      Total      Total      Total     Imperv       Perv      Total       Total     Peak  Runoff
                           Precip      Runon       Evap      Infil     Runoff     Runoff     Runoff      Runoff   Runoff   Coeff
  Subcatchment                 mm         mm         mm         mm         mm         mm         mm    10^6 ltr      CMS
  ------------------------------------------------------------------------------------------------------------------------------
  S1                         9.77       0.00       0.00       1.62       6.19       1.89       8.07        0.32     0.09   0.826
  S2                         9.77       0.00       0.00       9.43       0.26       0.01       0.27        1.07     0.06   0.027
  S3                         9.77       0.00       0.00       0.00       9.60       0.00       9.10        0.36     0.10   0.932
  

  ***********************
  LID Performance Summary
  ***********************

  --------------------------------------------------------------------------------------------------------------------
                                         Total      Evap     Infil   Surface    Drain    Initial     Final  Continuity
                                        Inflow      Loss      Loss   Outflow   Outflow   Storage   Storage       Error
  Subcatchment      LID Control             mm        mm        mm        mm        mm        mm        mm           %
  --------------------------------------------------------------------------------------------------------------------
  S3                rb                 5768.99      0.00      0.00   4768.99      0.00      0.00   1000.00        0.00
  
  ******************
  Node Depth Summary
  ******************
  
  ---------------------------------------------------------------------------------
                                 Average  Maximum  Maximum  Time of Max    Reported
                                   Depth    Depth      HGL   Occurrence   Max Depth
  Node                 Type       Meters   Meters   Meters  days hr:min      Meters
  ---------------------------------------------------------------------------------
  J3                   JUNCTION     0.03     0.13    93.13     0  12:00        0.13
  J1                   JUNCTION     0.01     0.06    96.06     0  11:54        0.06
  J4                   JUNCTION     0.07     0.22    88.22     0  12:03        0.22
  J2                   JUNCTION     0.07     0.23    90.23     0  12:00        0.23
  OUT1                 OUTFALL      0.00     0.00    85.00     0  00:00        0.00
  STO1                 STORAGE      0.00     0.00    86.00     0  00:00        0.00
  
  
  *******************
  Node Inflow Summary
  *******************
  
  -------------------------------------------------------------------------------------------------
                                  Maximum  Maximum                  Lateral       Total        Flow
                                  Lateral    Total  Time of Max      Inflow      Inflow     Balance
                                   Inflow   Inflow   Occurrence      Volume      Volume       Error
  Node                 Type           CMS      CMS  days hr:min    10^6 ltr    10^6 ltr     Percent
  -------------------------------------------------------------------------------------------------
  J3                   JUNCTION     0.096    0.096     0  12:00       0.364       0.364       0.000
  J1                   JUNCTION     0.092    0.092     0  11:54       0.323       0.323       0.000
  J4                   JUNCTION     0.000    0.233     0  12:03           0        1.75       0.000
  J2                   JUNCTION     0.058    0.144     0  12:00        1.07        1.39       0.000
  OUT1                 OUTFALL      0.000    0.000     0  00:00           0           0       0.000 ltr
  STO1                 STORAGE      0.000    0.221     0  12:06           0        1.73       0.021
  
  
  *********************
  Node Flooding Summary
  *********************
  
  Flooding refers to all water that overflows a node, whether it ponds or not.
  --------------------------------------------------------------------------
                                                             Total   Maximum
                                 Maximum   Time of Max       Flood    Ponded
                        Hours       Rate    Occurrence      Volume    Volume
  Node                 Flooded       CMS   days hr:min    10^6 ltr   1000 m3
  --------------------------------------------------------------------------
  STO1                   20.82     0.221      0  12:07       1.733     0.000
  
  
  **********************
  Storage Volume Summary
  **********************
  
  --------------------------------------------------------------------------------------------------
                         Average     Avg  Evap Exfil       Maximum     Max    Time of Max    Maximum
                          Volume    Pcnt  Pcnt  Pcnt        Volume    Pcnt     Occurrence    Outflow
  Storage Unit           1000 m3    Full  Loss  Loss       1000 m3    Full    days hr:min        CMS
  --------------------------------------------------------------------------------------------------
  STO1                     0.000       0     0     0         0.000       0       0  00:00      0.000
  
  
  ***********************
  Outfall Loading Summary
  ***********************
  
  -----------------------------------------------------------
                         Flow       Avg       Max       Total
                         Freq      Flow      Flow      Volume
  Outfall Node           Pcnt       CMS       CMS    10^6 ltr
  -----------------------------------------------------------
  OUT1                   0.00     0.000     0.000       0.000
  -----------------------------------------------------------
  System                 0.00     0.000     0.000       0.000
  
  
  ********************
  Link Flow Summary
  ********************
  
  -----------------------------------------------------------------------------
                                 Maximum  Time of Max   Maximum    Max/    Max/
                                  |Flow|   Occurrence   |Veloc|    Full    Full
  Link                 Type          CMS  days hr:min     m/sec    Flow   Depth
  -----------------------------------------------------------------------------
  C3                   CONDUIT     0.094     0  12:02      1.29    0.02    0.09
  C4                   CONDUIT     0.221     0  12:06      1.45    0.02    0.10
  C2                   CONDUIT     0.140     0  12:03      1.12    0.11    0.22
  C1                   CONDUIT     0.091     0  11:55      5.30    0.01    0.06
  C5                   CONDUIT     0.000     0  00:00      0.00    0.00    0.00
  
  
  *************************
  Conduit Surcharge Summary
  *************************
  
  No conduits were surcharged.
  
  
  ********************
  Subcatchment Results
  ********************
  
  <<< Subcatchment S1 >>>
  ---------------------------------------------------
  Date        Time        Precip.    Losses    Runoff
                            mm/hr     mm/hr       CMS
  ---------------------------------------------------
   01/01/2000 01:05:00      0.101     0.037    0.0000
   01/01/2000 01:10:00      0.101     0.037    0.0000
   01/01/2000 01:15:00      0.103     0.037    0.0000
   01/01/2000 01:20:00      0.103     0.037    0.0000
   01/01/2000 01:25:00      0.105     0.038    0.0000
   01/01/2000 01:30:00      0.105     0.038    0.0000
   01/01/2000 01:35:00      0.105     0.038    0.0000
   01/01/2000 01:40:00      0.107     0.039    0.0000
   01/01/2000 01:45:00      0.107     0.039    0.0000
   01/01/2000 01:50:00      0.109     0.039    0.0003
   01/01/2000 01:55:00      0.109     0.039    0.0003
   01/01/2000 02:00:00      0.111     0.040    0.0004
   01/01/2000 02:05:00      0.111     0.040    0.0004
   01/01/2000 02:10:00      0.111     0.040    0.0005
   01/01/2000 02:15:00      0.113     0.041    0.0005
   01/01/2000 02:20:00      0.113     0.041    0.0006
   01/01/2000 02:25:00      0.115     0.042    0.0006
   01/01/2000 02:30:00      0.115     0.042    0.0006
   01/01/2000 02:35:00      0.115     0.042    0.0007
   01/01/2000 02:40:00      0.117     0.042    0.0007
   01/01/2000 02:45:00      0.117     0.042    0.0007
   01/01/2000 02:50:00      0.119     0.043    0.0007
   01/01/2000 02:55:00      0.119     0.043    0.0007
   01/01/2000 03:00:00      0.121     0.043    0.0008
   01/01/2000 03:05:00      0.121     0.044    0.0008
   01/01/2000 03:10:00      0.121     0.044    0.0008
   01/01/2000 03:15:00      0.123     0.044    0.0008
   01/01/2000 03:20:00      0.123     0.044    0.0008
   01/01/2000 03:25:00      0.125     0.045    0.0008
   01/01/2000 03:30:00      0.125     0.045    0.0008
   01/01/2000 03:35:00      0.125     0.045    0.0008
   01/01/2000 03:40:00      0.127     0.046    0.0008
   01/01/2000 03:45:00      0.127     0.046    0.0009
   01/01/2000 03:50:00      0.129     0.047    0.0009
   01/01/2000 03:55:00      0.129     0.047    0.0009
   01/01/2000 04:00:00      0.131     0.047    0.0009
   01/01/2000 04:05:00      0.131     0.047    0.0009
   01/01/2000 04:10:00      0.131     0.047    0.0009
   01/01/2000 04:15:00      0.133     0.048    0.0009
   01/01/2000 04:20:00      0.133     0.048    0.0009
   01/01/2000 04:25:00      0.135     0.049    0.0009
   01/01/2000 04:30:00      0.135     0.049    0.0009
   01/01/2000 04:35:00      0.135     0.049    0.0009
   01/01/2000 04:40:00      0.137     0.050    0.0009
   01/01/2000 04:45:00      0.137     0.050    0.0009
   01/01/2000 04:50:00      0.139     0.050    0.0009
   01/01/2000 04:55:00      0.139     0.050    0.0010
   01/01/2000 05:00:00      0.141     0.050    0.0010
   01/01/2000 05:05:00      0.141     0.051    0.0010
   01/01/2000 05:10:00      0.143     0.052    0.0010
   01/01/2000 05:15:00      0.145     0.052    0.0010
   01/01/2000 05:20:00      0.147     0.053    0.0010
   01/01/2000 05:25:00      0.149     0.054    0.0010
   01/01/2000 05:30:00      0.151     0.054    0.0010
   01/01/2000 05:35:00      0.153     0.055    0.0010
   01/01/2000 05:40:00      0.153     0.055    0.0010
   01/01/2000 05:45:00      0.155     0.056    0.0010
   01/01/2000 05:50:00      0.157     0.057    0.0011
   01/01/2000 05:55:00      0.159     0.057    0.0011
   01/01/2000 06:00:00      0.161     0.058    0.0011
   01/01/2000 06:05:00      0.163     0.058    0.0011
   01/01/2000 06:10:00      0.163     0.059    0.0011
   01/01/2000 06:15:00      0.165     0.060    0.0011
   01/01/2000 06:20:00      0.167     0.060    0.0011
   01/01/2000 06:25:00      0.169     0.061    0.0011
   01/01/2000 06:30:00      0.171     0.062    0.0011
   01/01/2000 06:35:00      0.173     0.062    0.0012
   01/01/2000 06:40:00      0.173     0.063    0.0012
   01/01/2000 06:45:00      0.175     0.063    0.0012
   01/01/2000 06:50:00      0.177     0.064    0.0012
   01/01/2000 06:55:00      0.179     0.065    0.0012
   01/01/2000 07:00:00      0.181     0.065    0.0012
   01/01/2000 07:05:00      0.183     0.065    0.0012
   01/01/2000 07:10:00      0.183     0.066    0.0012
   01/01/2000 07:15:00      0.185     0.067    0.0013
   01/01/2000 07:20:00      0.187     0.068    0.0013
   01/01/2000 07:25:00      0.189     0.068    0.0013
   01/01/2000 07:30:00      0.191     0.069    0.0013
   01/01/2000 07:35:00      0.193     0.069    0.0013
   01/01/2000 07:40:00      0.193     0.070    0.0013
   01/01/2000 07:45:00      0.195     0.070    0.0013
   01/01/2000 07:50:00      0.197     0.071    0.0013
   01/01/2000 07:55:00      0.199     0.072    0.0014
   01/01/2000 08:00:00      0.201     0.073    0.0014
   01/01/2000 08:05:00      0.203     0.073    0.0014
   01/01/2000 08:10:00      0.203     0.073    0.0014
   01/01/2000 08:15:00      0.205     0.074    0.0014
   01/01/2000 08:20:00      0.207     0.075    0.0014
   01/01/2000 08:25:00      0.209     0.076    0.0014
   01/01/2000 08:30:00      0.211     0.076    0.0014
   01/01/2000 08:35:00      0.213     0.076    0.0014
   01/01/2000 08:40:00      0.213     0.077    0.0015
   01/01/2000 08:45:00      0.215     0.078    0.0015
   01/01/2000 08:50:00      0.217     0.078    0.0015
   01/01/2000 08:55:00      0.219     0.079    0.0015
   01/01/2000 09:00:00      0.225     0.081    0.0015
   01/01/2000 09:05:00      0.235     0.081    0.0015
   01/01/2000 09:10:00      0.235     0.085    0.0016
   01/01/2000 09:15:00      0.245     0.089    0.0016
   01/01/2000 09:20:00      0.255     0.092    0.0016
   01/01/2000 09:25:00      0.265     0.096    0.0017
   01/01/2000 09:30:00      0.275     0.099    0.0017
   01/01/2000 09:35:00      0.285     0.099    0.0018
   01/01/2000 09:40:00      0.285     0.103    0.0018
   01/01/2000 09:45:00      0.295     0.106    0.0019
   01/01/2000 09:50:00      0.305     0.105    0.0019
   01/01/2000 09:55:00      0.315     0.104    0.0020
   01/01/2000 10:00:00      0.320     0.103    0.0020
   01/01/2000 10:05:00      0.320     0.103    0.0021
   01/01/2000 10:10:00      0.320     0.102    0.0021
   01/01/2000 10:15:00      0.320     0.101    0.0022
   01/01/2000 10:20:00      0.320     0.100    0.0022
   01/01/2000 10:25:00      0.320     0.099    0.0022
   01/01/2000 10:30:00      0.328     0.098    0.0022
   01/01/2000 10:35:00      0.344     0.098    0.0022
   01/01/2000 10:40:00      0.344     0.097    0.0023
   01/01/2000 10:45:00      0.360     0.097    0.0023
   01/01/2000 10:50:00      0.376     0.096    0.0024
   01/01/2000 10:55:00      0.392     0.096    0.0025
   01/01/2000 11:00:00      0.412     0.095    0.0026
   01/01/2000 11:05:00      0.436     0.095    0.0027
   01/01/2000 11:10:00      0.436     0.095    0.0028
   01/01/2000 11:15:00      0.460     0.094    0.0029
   01/01/2000 11:20:00      0.484     0.094    0.0030
   01/01/2000 11:25:00      0.508     0.094    0.0032
   01/01/2000 11:30:00      0.540     0.093    0.0033
   01/01/2000 11:35:00      0.580     0.093    0.0035
   01/01/2000 11:40:00      0.580     0.093    0.0037
   01/01/2000 11:45:00      0.620     0.093    0.0039
   01/01/2000 11:50:00      0.660     0.093    0.0042
   01/01/2000 11:55:00      0.700     0.093    0.0044
   01/01/2000 12:00:00      0.768     0.093    0.0047
   01/01/2000 12:05:00      0.864     0.093    0.0050
   01/01/2000 12:10:00      0.864     0.093    0.0055
   01/01/2000 12:15:00      0.960     0.093    0.0061
   01/01/2000 12:20:00      1.056     0.093    0.0067
   01/01/2000 12:25:00      1.152     0.094    0.0073
   01/01/2000 12:30:00      2.384     0.094    0.0086
   01/01/2000 12:35:00      4.752     0.094    0.0124
   01/01/2000 12:40:00      4.752     0.096    0.0229
   01/01/2000 12:45:00      7.643     0.101    0.0394
   01/01/2000 12:50:00     13.707     0.109    0.0692
   01/01/2000 12:55:00      9.514     0.122    0.0901
   01/01/2000 13:00:00      1.896     0.129    0.0804
   01/01/2000 13:05:00      1.668     0.129    0.0479
   01/01/2000 13:10:00      1.668     0.125    0.0364
   01/01/2000 13:15:00      1.440     0.121    0.0295
   01/01/2000 13:20:00      1.212     0.118    0.0249
   01/01/2000 13:25:00      0.984     0.114    0.0215
   01/01/2000 13:30:00      0.844     0.111    0.0187
   01/01/2000 13:35:00      0.792     0.111    0.0166
   01/01/2000 13:40:00      0.792     0.109    0.0150
   01/01/2000 13:45:00      0.740     0.106    0.0137
   01/01/2000 13:50:00      0.688     0.104    0.0126
   01/01/2000 13:55:00      0.636     0.102    0.0116
   01/01/2000 14:00:00      0.596     0.100    0.0108
   01/01/2000 14:05:00      0.568     0.100    0.0100
   01/01/2000 14:10:00      0.568     0.099    0.0094
   01/01/2000 14:15:00      0.540     0.097    0.0088
   01/01/2000 14:20:00      0.512     0.096    0.0083
   01/01/2000 14:25:00      0.484     0.095    0.0079
   01/01/2000 14:30:00      0.460     0.093    0.0074
   01/01/2000 14:35:00      0.440     0.093    0.0070
   01/01/2000 14:40:00      0.440     0.092    0.0067
   01/01/2000 14:45:00      0.420     0.091    0.0064
   01/01/2000 14:50:00      0.400     0.090    0.0060
   01/01/2000 14:55:00      0.380     0.089    0.0058
   01/01/2000 15:00:00      0.367     0.088    0.0055
   01/01/2000 15:05:00      0.359     0.088    0.0052
   01/01/2000 15:10:00      0.359     0.088    0.0050
   01/01/2000 15:15:00      0.353     0.087    0.0048
   01/01/2000 15:20:00      0.345     0.086    0.0046
   01/01/2000 15:25:00      0.339     0.085    0.0045
   01/01/2000 15:30:00      0.331     0.085    0.0043
   01/01/2000 15:35:00      0.325     0.085    0.0042
   01/01/2000 15:40:00      0.325     0.084    0.0041
   01/01/2000 15:45:00      0.317     0.084    0.0039
   01/01/2000 15:50:00      0.311     0.083    0.0038
   01/01/2000 15:55:00      0.303     0.083    0.0037
   01/01/2000 16:00:00      0.297     0.082    0.0036
   01/01/2000 16:05:00      0.289     0.082    0.0035
   01/01/2000 16:10:00      0.289     0.082    0.0034
   01/01/2000 16:15:00      0.283     0.081    0.0033
   01/01/2000 16:20:00      0.275     0.081    0.0032
   01/01/2000 16:25:00      0.269     0.080    0.0031
   01/01/2000 16:30:00      0.261     0.080    0.0031
   01/01/2000 16:35:00      0.255     0.080    0.0030
   01/01/2000 16:40:00      0.255     0.079    0.0029
   01/01/2000 16:45:00      0.247     0.079    0.0028
   01/01/2000 16:50:00      0.241     0.079    0.0027
   01/01/2000 16:55:00      0.233     0.078    0.0027
   01/01/2000 17:00:00      0.229     0.078    0.0026
   01/01/2000 17:05:00      0.226     0.078    0.0025
   01/01/2000 17:10:00      0.226     0.077    0.0024
   01/01/2000 17:15:00      0.224     0.077    0.0024
   01/01/2000 17:20:00      0.221     0.077    0.0023
   01/01/2000 17:25:00      0.219     0.077    0.0023
   01/01/2000 17:30:00      0.216     0.076    0.0022
   01/01/2000 17:35:00      0.214     0.076    0.0022
   01/01/2000 17:40:00      0.214     0.076    0.0022
   01/01/2000 17:45:00      0.211     0.076    0.0021
   01/01/2000 17:50:00      0.209     0.075    0.0021
   01/01/2000 17:55:00      0.206     0.075    0.0020
   01/01/2000 18:00:00      0.204     0.075    0.0020
   01/01/2000 18:05:00      0.201     0.075    0.0020
   01/01/2000 18:10:00      0.201     0.075    0.0019
   01/01/2000 18:15:00      0.199     0.074    0.0019
   01/01/2000 18:20:00      0.196     0.074    0.0019
   01/01/2000 18:25:00      0.194     0.074    0.0018
   01/01/2000 18:30:00      0.191     0.074    0.0018
   01/01/2000 18:35:00      0.189     0.074    0.0018
   01/01/2000 18:40:00      0.189     0.073    0.0018
   01/01/2000 18:45:00      0.186     0.073    0.0017
   01/01/2000 18:50:00      0.184     0.073    0.0017
   01/01/2000 18:55:00      0.181     0.073    0.0017
   01/01/2000 19:00:00      0.179     0.073    0.0016
   01/01/2000 19:05:00      0.176     0.073    0.0016
   01/01/2000 19:10:00      0.176     0.072    0.0016
   01/01/2000 19:15:00      0.174     0.072    0.0016
   01/01/2000 19:20:00      0.171     0.072    0.0015
   01/01/2000 19:25:00      0.169     0.072    0.0015
   01/01/2000 19:30:00      0.166     0.072    0.0015
   01/01/2000 19:35:00      0.164     0.072    0.0015
   01/01/2000 19:40:00      0.164     0.071    0.0014
   01/01/2000 19:45:00      0.161     0.071    0.0014
   01/01/2000 19:50:00      0.159     0.071    0.0014
   01/01/2000 19:55:00      0.156     0.071    0.0014
   01/01/2000 20:00:00      0.154     0.071    0.0013
   01/01/2000 20:05:00      0.154     0.071    0.0013
   01/01/2000 20:10:00      0.151     0.070    0.0013
   01/01/2000 20:15:00      0.149     0.070    0.0013
   01/01/2000 20:20:00      0.146     0.070    0.0013
   01/01/2000 20:25:00      0.144     0.070    0.0012
   01/01/2000 20:30:00      0.141     0.070    0.0012
   01/01/2000 20:35:00      0.141     0.070    0.0012
   01/01/2000 20:40:00      0.139     0.070    0.0012
   01/01/2000 20:45:00      0.136     0.069    0.0011
   01/01/2000 20:50:00      0.134     0.069    0.0011
   01/01/2000 20:55:00      0.131     0.069    0.0011
   01/01/2000 21:00:00      0.130     0.069    0.0011
   01/01/2000 21:05:00      0.130     0.069    0.0011
   01/01/2000 21:10:00      0.129     0.069    0.0010
   01/01/2000 21:15:00      0.129     0.069    0.0010
   01/01/2000 21:20:00      0.128     0.069    0.0010
   01/01/2000 21:25:00      0.128     0.068    0.0010
   01/01/2000 21:30:00      0.127     0.068    0.0010
   01/01/2000 21:35:00      0.127     0.068    0.0010
   01/01/2000 21:40:00      0.127     0.068    0.0010
   01/01/2000 21:45:00      0.126     0.068    0.0010
   01/01/2000 21:50:00      0.126     0.068    0.0010
   01/01/2000 21:55:00      0.125     0.068    0.0009
   01/01/2000 22:00:00      0.125     0.068    0.0009
   01/01/2000 22:05:00      0.125     0.068    0.0009
   01/01/2000 22:10:00      0.124     0.067    0.0009
   01/01/2000 22:15:00      0.124     0.067    0.0009
   01/01/2000 22:20:00      0.123     0.067    0.0009
   01/01/2000 22:25:00      0.123     0.067    0.0009
   01/01/2000 22:30:00      0.122     0.067    0.0009
   01/01/2000 22:35:00      0.122     0.067    0.0009
   01/01/2000 22:40:00      0.122     0.067    0.0009
   01/01/2000 22:45:00      0.121     0.067    0.0009
   01/01/2000 22:50:00      0.121     0.067    0.0009
   01/01/2000 22:55:00      0.120     0.066    0.0009
   01/01/2000 23:00:00      0.120     0.066    0.0009
  
  
  <<< Subcatchment S2 >>>
  ---------------------------------------------------
  Date        Time        Precip.    Losses    Runoff
                            mm/hr     mm/hr       CMS
  ---------------------------------------------------
   01/01/2000 01:05:00      0.101     0.098    0.0000
   01/01/2000 01:10:00      0.101     0.098    0.0000
   01/01/2000 01:15:00      0.103     0.100    0.0000
   01/01/2000 01:20:00      0.103     0.100    0.0000
   01/01/2000 01:25:00      0.105     0.102    0.0000
   01/01/2000 01:30:00      0.105     0.102    0.0000
   01/01/2000 01:35:00      0.105     0.102    0.0000
   01/01/2000 01:40:00      0.107     0.103    0.0000
   01/01/2000 01:45:00      0.107     0.103    0.0000
   01/01/2000 01:50:00      0.109     0.105    0.0000
   01/01/2000 01:55:00      0.109     0.105    0.0000
   01/01/2000 02:00:00      0.111     0.107    0.0000
   01/01/2000 02:05:00      0.111     0.107    0.0000
   01/01/2000 02:10:00      0.111     0.107    0.0000
   01/01/2000 02:15:00      0.113     0.109    0.0000
   01/01/2000 02:20:00      0.113     0.109    0.0000
   01/01/2000 02:25:00      0.115     0.111    0.0000
   01/01/2000 02:30:00      0.115     0.111    0.0000
   01/01/2000 02:35:00      0.115     0.111    0.0000
   01/01/2000 02:40:00      0.117     0.113    0.0000
   01/01/2000 02:45:00      0.117     0.113    0.0000
   01/01/2000 02:50:00      0.119     0.115    0.0000
   01/01/2000 02:55:00      0.119     0.115    0.0000
   01/01/2000 03:00:00      0.121     0.115    0.0000
   01/01/2000 03:05:00      0.121     0.117    0.0000
   01/01/2000 03:10:00      0.121     0.117    0.0000
   01/01/2000 03:15:00      0.123     0.119    0.0000
   01/01/2000 03:20:00      0.123     0.119    0.0000
   01/01/2000 03:25:00      0.125     0.121    0.0000
   01/01/2000 03:30:00      0.125     0.121    0.0000
   01/01/2000 03:35:00      0.125     0.121    0.0000
   01/01/2000 03:40:00      0.127     0.123    0.0000
   01/01/2000 03:45:00      0.127     0.123    0.0000
   01/01/2000 03:50:00      0.129     0.125    0.0000
   01/01/2000 03:55:00      0.129     0.125    0.0000
   01/01/2000 04:00:00      0.131     0.125    0.0000
   01/01/2000 04:05:00      0.131     0.127    0.0000
   01/01/2000 04:10:00      0.131     0.127    0.0000
   01/01/2000 04:15:00      0.133     0.129    0.0000
   01/01/2000 04:20:00      0.133     0.129    0.0000
   01/01/2000 04:25:00      0.135     0.131    0.0000
   01/01/2000 04:30:00      0.135     0.131    0.0000
   01/01/2000 04:35:00      0.135     0.131    0.0000
   01/01/2000 04:40:00      0.137     0.132    0.0000
   01/01/2000 04:45:00      0.137     0.132    0.0000
   01/01/2000 04:50:00      0.139     0.134    0.0000
   01/01/2000 04:55:00      0.139     0.134    0.0000
   01/01/2000 05:00:00      0.141     0.134    0.0000
   01/01/2000 05:05:00      0.141     0.136    0.0000
   01/01/2000 05:10:00      0.143     0.138    0.0000
   01/01/2000 05:15:00      0.145     0.140    0.0000
   01/01/2000 05:20:00      0.147     0.142    0.0000
   01/01/2000 05:25:00      0.149     0.144    0.0000
   01/01/2000 05:30:00      0.151     0.144    0.0000
   01/01/2000 05:35:00      0.153     0.146    0.0000
   01/01/2000 05:40:00      0.153     0.148    0.0000
   01/01/2000 05:45:00      0.155     0.150    0.0000
   01/01/2000 05:50:00      0.157     0.152    0.0000
   01/01/2000 05:55:00      0.159     0.154    0.0000
   01/01/2000 06:00:00      0.161     0.156    0.0000
   01/01/2000 06:05:00      0.163     0.156    0.0000
   01/01/2000 06:10:00      0.163     0.158    0.0000
   01/01/2000 06:15:00      0.165     0.160    0.0000
   01/01/2000 06:20:00      0.167     0.161    0.0000
   01/01/2000 06:25:00      0.169     0.163    0.0000
   01/01/2000 06:30:00      0.171     0.165    0.0000
   01/01/2000 06:35:00      0.173     0.165    0.0000
   01/01/2000 06:40:00      0.173     0.167    0.0000
   01/01/2000 06:45:00      0.175     0.169    0.0000
   01/01/2000 06:50:00      0.177     0.171    0.0000
   01/01/2000 06:55:00      0.179     0.173    0.0000
   01/01/2000 07:00:00      0.181     0.175    0.0000
   01/01/2000 07:05:00      0.183     0.175    0.0000
   01/01/2000 07:10:00      0.183     0.177    0.0000
   01/01/2000 07:15:00      0.185     0.179    0.0000
   01/01/2000 07:20:00      0.187     0.181    0.0000
   01/01/2000 07:25:00      0.189     0.183    0.0000
   01/01/2000 07:30:00      0.191     0.185    0.0000
   01/01/2000 07:35:00      0.193     0.185    0.0000
   01/01/2000 07:40:00      0.193     0.187    0.0000
   01/01/2000 07:45:00      0.195     0.189    0.0000
   01/01/2000 07:50:00      0.197     0.190    0.0000
   01/01/2000 07:55:00      0.199     0.192    0.0000
   01/01/2000 08:00:00      0.201     0.194    0.0000
   01/01/2000 08:05:00      0.203     0.194    0.0000
   01/01/2000 08:10:00      0.203     0.196    0.0000
   01/01/2000 08:15:00      0.205     0.198    0.0000
   01/01/2000 08:20:00      0.207     0.200    0.0000
   01/01/2000 08:25:00      0.209     0.202    0.0000
   01/01/2000 08:30:00      0.211     0.204    0.0000
   01/01/2000 08:35:00      0.213     0.204    0.0000
   01/01/2000 08:40:00      0.213     0.206    0.0000
   01/01/2000 08:45:00      0.215     0.208    0.0000
   01/01/2000 08:50:00      0.217     0.210    0.0000
   01/01/2000 08:55:00      0.219     0.212    0.0000
   01/01/2000 09:00:00      0.225     0.218    0.0000
   01/01/2000 09:05:00      0.235     0.218    0.0000
   01/01/2000 09:10:00      0.235     0.227    0.0000
   01/01/2000 09:15:00      0.245     0.237    0.0000
   01/01/2000 09:20:00      0.255     0.247    0.0000
   01/01/2000 09:25:00      0.265     0.256    0.0000
   01/01/2000 09:30:00      0.275     0.266    0.0000
   01/01/2000 09:35:00      0.285     0.266    0.0000
   01/01/2000 09:40:00      0.285     0.276    0.0000
   01/01/2000 09:45:00      0.295     0.285    0.0000
   01/01/2000 09:50:00      0.305     0.295    0.0000
   01/01/2000 09:55:00      0.315     0.305    0.0000
   01/01/2000 10:00:00      0.320     0.309    0.0000
   01/01/2000 10:05:00      0.320     0.309    0.0000
   01/01/2000 10:10:00      0.320     0.309    0.0000
   01/01/2000 10:15:00      0.320     0.309    0.0000
   01/01/2000 10:20:00      0.320     0.309    0.0000
   01/01/2000 10:25:00      0.320     0.309    0.0000
   01/01/2000 10:30:00      0.328     0.317    0.0000
   01/01/2000 10:35:00      0.344     0.317    0.0000
   01/01/2000 10:40:00      0.344     0.333    0.0000
   01/01/2000 10:45:00      0.360     0.348    0.0000
   01/01/2000 10:50:00      0.376     0.363    0.0000
   01/01/2000 10:55:00      0.392     0.379    0.0000
   01/01/2000 11:00:00      0.412     0.398    0.0000
   01/01/2000 11:05:00      0.436     0.398    0.0000
   01/01/2000 11:10:00      0.436     0.421    0.0000
   01/01/2000 11:15:00      0.460     0.445    0.0000
   01/01/2000 11:20:00      0.484     0.468    0.0000
   01/01/2000 11:25:00      0.508     0.491    0.0000
   01/01/2000 11:30:00      0.540     0.522    0.0000
   01/01/2000 11:35:00      0.580     0.522    0.0000
   01/01/2000 11:40:00      0.580     0.561    0.0000
   01/01/2000 11:45:00      0.620     0.599    0.0000
   01/01/2000 11:50:00      0.660     0.638    0.0000
   01/01/2000 11:55:00      0.700     0.677    0.0000
   01/01/2000 12:00:00      0.768     0.742    0.0000
   01/01/2000 12:05:00      0.864     0.742    0.0000
   01/01/2000 12:10:00      0.864     0.835    0.0000
   01/01/2000 12:15:00      0.960     0.928    0.0000
   01/01/2000 12:20:00      1.056     0.928    0.0000
   01/01/2000 12:25:00      1.152     0.921    0.0000
   01/01/2000 12:30:00      2.384     0.915    0.0000
   01/01/2000 12:35:00      4.752     0.915    0.0000
   01/01/2000 12:40:00      4.752     0.923    0.0000
   01/01/2000 12:45:00      7.643     0.955    0.0000
   01/01/2000 12:50:00     13.707     1.013    0.0335
   01/01/2000 12:55:00      9.514     1.125    0.0472
   01/01/2000 13:00:00      1.896     1.188    0.0567
   01/01/2000 13:05:00      1.668     1.188    0.0574
   01/01/2000 13:10:00      1.668     1.176    0.0578
   01/01/2000 13:15:00      1.440     1.163    0.0579
   01/01/2000 13:20:00      1.212     1.150    0.0578
   01/01/2000 13:25:00      0.984     1.136    0.0573
   01/01/2000 13:30:00      0.844     1.121    0.0567
   01/01/2000 13:35:00      0.792     1.121    0.0559
   01/01/2000 13:40:00      0.792     1.106    0.0551
   01/01/2000 13:45:00      0.740     1.091    0.0542
   01/01/2000 13:50:00      0.688     1.078    0.0534
   01/01/2000 13:55:00      0.636     1.065    0.0525
   01/01/2000 14:00:00      0.596     1.052    0.0515
   01/01/2000 14:05:00      0.568     1.052    0.0506
   01/01/2000 14:10:00      0.568     1.040    0.0497
   01/01/2000 14:15:00      0.540     1.029    0.0487
   01/01/2000 14:20:00      0.512     1.018    0.0478
   01/01/2000 14:25:00      0.484     1.008    0.0469
   01/01/2000 14:30:00      0.460     0.997    0.0460
   01/01/2000 14:35:00      0.440     0.997    0.0451
   01/01/2000 14:40:00      0.440     0.988    0.0442
   01/01/2000 14:45:00      0.420     0.978    0.0433
   01/01/2000 14:50:00      0.400     0.969    0.0424
   01/01/2000 14:55:00      0.380     0.961    0.0416
   01/01/2000 15:00:00      0.367     0.952    0.0407
   01/01/2000 15:05:00      0.359     0.952    0.0399
   01/01/2000 15:10:00      0.359     0.944    0.0391
   01/01/2000 15:15:00      0.353     0.937    0.0383
   01/01/2000 15:20:00      0.345     0.929    0.0375
   01/01/2000 15:25:00      0.339     0.922    0.0368
   01/01/2000 15:30:00      0.331     0.915    0.0360
   01/01/2000 15:35:00      0.325     0.915    0.0353
   01/01/2000 15:40:00      0.325     0.908    0.0346
   01/01/2000 15:45:00      0.317     0.902    0.0340
   01/01/2000 15:50:00      0.311     0.896    0.0333
   01/01/2000 15:55:00      0.303     0.890    0.0327
   01/01/2000 16:00:00      0.297     0.884    0.0320
   01/01/2000 16:05:00      0.289     0.884    0.0314
   01/01/2000 16:10:00      0.289     0.878    0.0308
   01/01/2000 16:15:00      0.283     0.873    0.0302
   01/01/2000 16:20:00      0.275     0.868    0.0297
   01/01/2000 16:25:00      0.269     0.862    0.0291
   01/01/2000 16:30:00      0.261     0.857    0.0286
   01/01/2000 16:35:00      0.255     0.857    0.0000
   01/01/2000 16:40:00      0.255     0.852    0.0000
   01/01/2000 16:45:00      0.247     0.848    0.0000
   01/01/2000 16:50:00      0.241     0.843    0.0000
   01/01/2000 16:55:00      0.233     0.838    0.0000
   01/01/2000 17:00:00      0.229     0.834    0.0000
   01/01/2000 17:05:00      0.226     0.834    0.0000
   01/01/2000 17:10:00      0.226     0.830    0.0000
   01/01/2000 17:15:00      0.224     0.825    0.0000
   01/01/2000 17:20:00      0.221     0.821    0.0000
   01/01/2000 17:25:00      0.219     0.817    0.0000
   01/01/2000 17:30:00      0.216     0.813    0.0000
   01/01/2000 17:35:00      0.214     0.813    0.0000
   01/01/2000 17:40:00      0.214     0.810    0.0000
   01/01/2000 17:45:00      0.211     0.806    0.0000
   01/01/2000 17:50:00      0.209     0.802    0.0000
   01/01/2000 17:55:00      0.206     0.799    0.0000
   01/01/2000 18:00:00      0.204     0.795    0.0000
   01/01/2000 18:05:00      0.201     0.795    0.0000
   01/01/2000 18:10:00      0.201     0.792    0.0000
   01/01/2000 18:15:00      0.199     0.789    0.0000
   01/01/2000 18:20:00      0.196     0.785    0.0000
   01/01/2000 18:25:00      0.194     0.782    0.0000
   01/01/2000 18:30:00      0.191     0.779    0.0000
   01/01/2000 18:35:00      0.189     0.779    0.0000
   01/01/2000 18:40:00      0.189     0.776    0.0000
   01/01/2000 18:45:00      0.186     0.773    0.0000
   01/01/2000 18:50:00      0.184     0.770    0.0000
   01/01/2000 18:55:00      0.181     0.767    0.0000
   01/01/2000 19:00:00      0.179     0.765    0.0000
   01/01/2000 19:05:00      0.176     0.765    0.0000
   01/01/2000 19:10:00      0.176     0.762    0.0000
   01/01/2000 19:15:00      0.174     0.759    0.0000
   01/01/2000 19:20:00      0.171     0.217    0.0000
   01/01/2000 19:25:00      0.169     0.163    0.0000
   01/01/2000 19:30:00      0.166     0.160    0.0000
   01/01/2000 19:35:00      0.164     0.160    0.0000
   01/01/2000 19:40:00      0.164     0.159    0.0000
   01/01/2000 19:45:00      0.161     0.156    0.0000
   01/01/2000 19:50:00      0.159     0.154    0.0000
   01/01/2000 19:55:00      0.156     0.151    0.0000
   01/01/2000 20:00:00      0.154     0.151    0.0000
   01/01/2000 20:05:00      0.154     0.149    0.0000
   01/01/2000 20:10:00      0.151     0.146    0.0000
   01/01/2000 20:15:00      0.149     0.144    0.0000
   01/01/2000 20:20:00      0.146     0.141    0.0000
   01/01/2000 20:25:00      0.144     0.139    0.0000
   01/01/2000 20:30:00      0.141     0.139    0.0000
   01/01/2000 20:35:00      0.141     0.136    0.0000
   01/01/2000 20:40:00      0.139     0.134    0.0000
   01/01/2000 20:45:00      0.136     0.131    0.0000
   01/01/2000 20:50:00      0.134     0.130    0.0000
   01/01/2000 20:55:00      0.131     0.127    0.0000
   01/01/2000 21:00:00      0.130     0.127    0.0000
   01/01/2000 21:05:00      0.130     0.126    0.0000
   01/01/2000 21:10:00      0.129     0.125    0.0000
   01/01/2000 21:15:00      0.129     0.125    0.0000
   01/01/2000 21:20:00      0.128     0.124    0.0000
   01/01/2000 21:25:00      0.128     0.124    0.0000
   01/01/2000 21:30:00      0.127     0.124    0.0000
   01/01/2000 21:35:00      0.127     0.123    0.0000
   01/01/2000 21:40:00      0.127     0.123    0.0000
   01/01/2000 21:45:00      0.126     0.122    0.0000
   01/01/2000 21:50:00      0.126     0.122    0.0000
   01/01/2000 21:55:00      0.125     0.121    0.0000
   01/01/2000 22:00:00      0.125     0.121    0.0000
   01/01/2000 22:05:00      0.125     0.121    0.0000
   01/01/2000 22:10:00      0.124     0.120    0.0000
   01/01/2000 22:15:00      0.124     0.120    0.0000
   01/01/2000 22:20:00      0.123     0.119    0.0000
   01/01/2000 22:25:00      0.123     0.119    0.0000
   01/01/2000 22:30:00      0.122     0.119    0.0000
   01/01/2000 22:35:00      0.122     0.118    0.0000
   01/01/2000 22:40:00      0.122     0.118    0.0000
   01/01/2000 22:45:00      0.121     0.117    0.0000
   01/01/2000 22:50:00      0.121     0.117    0.0000
   01/01/2000 22:55:00      0.120     0.116    0.0000
   01/01/2000 23:00:00      0.120     0.116    0.0000
  
  
  <<< Subcatchment S3 >>>
  ---------------------------------------------------
  Date        Time        Precip.    Losses    Runoff
                            mm/hr     mm/hr       CMS
  ---------------------------------------------------
   01/01/2000 01:05:00      0.101     0.000    0.0000
   01/01/2000 01:10:00      0.101     0.000    0.0000
   01/01/2000 01:15:00      0.103     0.000    0.0000
   01/01/2000 01:20:00      0.103     0.000    0.0000
   01/01/2000 01:25:00      0.105     0.000    0.0000
   01/01/2000 01:30:00      0.105     0.000    0.0000
   01/01/2000 01:35:00      0.105     0.000    0.0000
   01/01/2000 01:40:00      0.107     0.000    0.0000
   01/01/2000 01:45:00      0.107     0.000    0.0000
   01/01/2000 01:50:00      0.109     0.000    0.0000
   01/01/2000 01:55:00      0.109     0.000    0.0000
   01/01/2000 02:00:00      0.111     0.000    0.0000
   01/01/2000 02:05:00      0.111     0.000    0.0003
   01/01/2000 02:10:00      0.111     0.000    0.0003
   01/01/2000 02:15:00      0.113     0.000    0.0004
   01/01/2000 02:20:00      0.113     0.000    0.0004
   01/01/2000 02:25:00      0.115     0.000    0.0004
   01/01/2000 02:30:00      0.115     0.000    0.0005
   01/01/2000 02:35:00      0.115     0.000    0.0005
   01/01/2000 02:40:00      0.117     0.000    0.0005
   01/01/2000 02:45:00      0.117     0.000    0.0005
   01/01/2000 02:50:00      0.119     0.000    0.0006
   01/01/2000 02:55:00      0.119     0.000    0.0006
   01/01/2000 03:00:00      0.121     0.000    0.0006
   01/01/2000 03:05:00      0.121     0.000    0.0006
   01/01/2000 03:10:00      0.121     0.000    0.0007
   01/01/2000 03:15:00      0.123     0.000    0.0007
   01/01/2000 03:20:00      0.123     0.000    0.0007
   01/01/2000 03:25:00      0.125     0.000    0.0007
   01/01/2000 03:30:00      0.125     0.000    0.0007
   01/01/2000 03:35:00      0.125     0.000    0.0008
   01/01/2000 03:40:00      0.127     0.000    0.0008
   01/01/2000 03:45:00      0.127     0.000    0.0008
   01/01/2000 03:50:00      0.129     0.000    0.0008
   01/01/2000 03:55:00      0.129     0.000    0.0008
   01/01/2000 04:00:00      0.131     0.000    0.0008
   01/01/2000 04:05:00      0.131     0.000    0.0009
   01/01/2000 04:10:00      0.131     0.000    0.0009
   01/01/2000 04:15:00      0.133     0.000    0.0009
   01/01/2000 04:20:00      0.133     0.000    0.0009
   01/01/2000 04:25:00      0.135     0.000    0.0009
   01/01/2000 04:30:00      0.135     0.000    0.0009
   01/01/2000 04:35:00      0.135     0.000    0.0009
   01/01/2000 04:40:00      0.137     0.000    0.0009
   01/01/2000 04:45:00      0.137     0.000    0.0010
   01/01/2000 04:50:00      0.139     0.000    0.0010
   01/01/2000 04:55:00      0.139     0.000    0.0010
   01/01/2000 05:00:00      0.141     0.000    0.0010
   01/01/2000 05:05:00      0.141     0.000    0.0010
   01/01/2000 05:10:00      0.143     0.000    0.0010
   01/01/2000 05:15:00      0.145     0.000    0.0010
   01/01/2000 05:20:00      0.147     0.000    0.0010
   01/01/2000 05:25:00      0.149     0.000    0.0010
   01/01/2000 05:30:00      0.151     0.000    0.0010
   01/01/2000 05:35:00      0.153     0.000    0.0011
   01/01/2000 05:40:00      0.153     0.000    0.0011
   01/01/2000 05:45:00      0.155     0.000    0.0011
   01/01/2000 05:50:00      0.157     0.000    0.0011
   01/01/2000 05:55:00      0.159     0.000    0.0011
   01/01/2000 06:00:00      0.161     0.000    0.0011
   01/01/2000 06:05:00      0.163     0.000    0.0011
   01/01/2000 06:10:00      0.163     0.000    0.0011
   01/01/2000 06:15:00      0.165     0.000    0.0012
   01/01/2000 06:20:00      0.167     0.000    0.0012
   01/01/2000 06:25:00      0.169     0.000    0.0012
   01/01/2000 06:30:00      0.171     0.000    0.0012
   01/01/2000 06:35:00      0.173     0.000    0.0012
   01/01/2000 06:40:00      0.173     0.000    0.0012
   01/01/2000 06:45:00      0.175     0.000    0.0012
   01/01/2000 06:50:00      0.177     0.000    0.0012
   01/01/2000 06:55:00      0.179     0.000    0.0013
   01/01/2000 07:00:00      0.181     0.000    0.0013
   01/01/2000 07:05:00      0.183     0.000    0.0013
   01/01/2000 07:10:00      0.183     0.000    0.0013
   01/01/2000 07:15:00      0.185     0.000    0.0013
   01/01/2000 07:20:00      0.187     0.000    0.0013
   01/01/2000 07:25:00      0.189     0.000    0.0013
   01/01/2000 07:30:00      0.191     0.000    0.0014
   01/01/2000 07:35:00      0.193     0.000    0.0014
   01/01/2000 07:40:00      0.193     0.000    0.0014
   01/01/2000 07:45:00      0.195     0.000    0.0014
   01/01/2000 07:50:00      0.197     0.000    0.0014
   01/01/2000 07:55:00      0.199     0.000    0.0014
   01/01/2000 08:00:00      0.201     0.000    0.0014
   01/01/2000 08:05:00      0.203     0.000    0.0014
   01/01/2000 08:10:00      0.203     0.000    0.0015
   01/01/2000 08:15:00      0.205     0.000    0.0015
   01/01/2000 08:20:00      0.207     0.000    0.0015
   01/01/2000 08:25:00      0.209     0.000    0.0015
   01/01/2000 08:30:00      0.211     0.000    0.0015
   01/01/2000 08:35:00      0.213     0.000    0.0015
   01/01/2000 08:40:00      0.213     0.000    0.0015
   01/01/2000 08:45:00      0.215     0.000    0.0016
   01/01/2000 08:50:00      0.217     0.000    0.0016
   01/01/2000 08:55:00      0.219     0.000    0.0016
   01/01/2000 09:00:00      0.225     0.000    0.0016
   01/01/2000 09:05:00      0.235     0.000    0.0016
   01/01/2000 09:10:00      0.235     0.000    0.0016
   01/01/2000 09:15:00      0.245     0.000    0.0017
   01/01/2000 09:20:00      0.255     0.000    0.0017
   01/01/2000 09:25:00      0.265     0.000    0.0017
   01/01/2000 09:30:00      0.275     0.000    0.0018
   01/01/2000 09:35:00      0.285     0.000    0.0018
   01/01/2000 09:40:00      0.285     0.000    0.0019
   01/01/2000 09:45:00      0.295     0.000    0.0019
   01/01/2000 09:50:00      0.305     0.000    0.0020
   01/01/2000 09:55:00      0.315     0.000    0.0020
   01/01/2000 10:00:00      0.320     0.000    0.0021
   01/01/2000 10:05:00      0.320     0.000    0.0021
   01/01/2000 10:10:00      0.320     0.000    0.0022
   01/01/2000 10:15:00      0.320     0.000    0.0022
   01/01/2000 10:20:00      0.320     0.000    0.0022
   01/01/2000 10:25:00      0.320     0.000    0.0023
   01/01/2000 10:30:00      0.328     0.000    0.0023
   01/01/2000 10:35:00      0.344     0.000    0.0023
   01/01/2000 10:40:00      0.344     0.000    0.0024
   01/01/2000 10:45:00      0.360     0.000    0.0024
   01/01/2000 10:50:00      0.376     0.000    0.0025
   01/01/2000 10:55:00      0.392     0.000    0.0025
   01/01/2000 11:00:00      0.412     0.000    0.0026
   01/01/2000 11:05:00      0.436     0.000    0.0027
   01/01/2000 11:10:00      0.436     0.000    0.0028
   01/01/2000 11:15:00      0.460     0.000    0.0029
   01/01/2000 11:20:00      0.484     0.000    0.0030
   01/01/2000 11:25:00      0.508     0.000    0.0032
   01/01/2000 11:30:00      0.540     0.000    0.0036
   01/01/2000 11:35:00      0.580     0.000    0.0048
   01/01/2000 11:40:00      0.580     0.000    0.0050
   01/01/2000 11:45:00      0.620     0.000    0.0053
   01/01/2000 11:50:00      0.660     0.000    0.0056
   01/01/2000 11:55:00      0.700     0.000    0.0059
   01/01/2000 12:00:00      0.768     0.000    0.0062
   01/01/2000 12:05:00      0.864     0.000    0.0066
   01/01/2000 12:10:00      0.864     0.000    0.0070
   01/01/2000 12:15:00      0.960     0.000    0.0076
   01/01/2000 12:20:00      1.056     0.000    0.0082
   01/01/2000 12:25:00      1.152     0.000    0.0089
   01/01/2000 12:30:00      2.384     0.000    0.0102
   01/01/2000 12:35:00      4.752     0.000    0.0134
   01/01/2000 12:40:00      4.752     0.000    0.0223
   01/01/2000 12:45:00      7.643     0.000    0.0376
   01/01/2000 12:50:00     13.707     0.000    0.0664
   01/01/2000 12:55:00      9.514     0.000    0.0911
   01/01/2000 13:00:00      1.896     0.000    0.0909
   01/01/2000 13:05:00      1.668     0.000    0.0640
   01/01/2000 13:10:00      1.668     0.000    0.0494
   01/01/2000 13:15:00      1.440     0.000    0.0394
   01/01/2000 13:20:00      1.212     0.000    0.0322
   01/01/2000 13:25:00      0.984     0.000    0.0268
   01/01/2000 13:30:00      0.844     0.000    0.0226
   01/01/2000 13:35:00      0.792     0.000    0.0193
   01/01/2000 13:40:00      0.792     0.000    0.0170
   01/01/2000 13:45:00      0.740     0.000    0.0151
   01/01/2000 13:50:00      0.688     0.000    0.0136
   01/01/2000 13:55:00      0.636     0.000    0.0123
   01/01/2000 14:00:00      0.596     0.000    0.0113
   01/01/2000 14:05:00      0.568     0.000    0.0104
   01/01/2000 14:10:00      0.568     0.000    0.0096
   01/01/2000 14:15:00      0.540     0.000    0.0090
   01/01/2000 14:20:00      0.512     0.000    0.0084
   01/01/2000 14:25:00      0.484     0.000    0.0079
   01/01/2000 14:30:00      0.460     0.000    0.0075
   01/01/2000 14:35:00      0.440     0.000    0.0071
   01/01/2000 14:40:00      0.440     0.000    0.0067
   01/01/2000 14:45:00      0.420     0.000    0.0064
   01/01/2000 14:50:00      0.400     0.000    0.0061
   01/01/2000 14:55:00      0.380     0.000    0.0058
   01/01/2000 15:00:00      0.367     0.000    0.0056
   01/01/2000 15:05:00      0.359     0.000    0.0054
   01/01/2000 15:10:00      0.359     0.000    0.0052
   01/01/2000 15:15:00      0.353     0.000    0.0050
   01/01/2000 15:20:00      0.345     0.000    0.0048
   01/01/2000 15:25:00      0.339     0.000    0.0047
   01/01/2000 15:30:00      0.331     0.000    0.0046
   01/01/2000 15:35:00      0.325     0.000    0.0044
   01/01/2000 15:40:00      0.325     0.000    0.0043
   01/01/2000 15:45:00      0.317     0.000    0.0042
   01/01/2000 15:50:00      0.311     0.000    0.0041
   01/01/2000 15:55:00      0.303     0.000    0.0040
   01/01/2000 16:00:00      0.297     0.000    0.0039
   01/01/2000 16:05:00      0.289     0.000    0.0038
   01/01/2000 16:10:00      0.289     0.000    0.0038
   01/01/2000 16:15:00      0.283     0.000    0.0037
   01/01/2000 16:20:00      0.275     0.000    0.0036
   01/01/2000 16:25:00      0.269     0.000    0.0035
   01/01/2000 16:30:00      0.261     0.000    0.0035
   01/01/2000 16:35:00      0.255     0.000    0.0034
   01/01/2000 16:40:00      0.255     0.000    0.0033
   01/01/2000 16:45:00      0.247     0.000    0.0033
   01/01/2000 16:50:00      0.241     0.000    0.0032
   01/01/2000 16:55:00      0.233     0.000    0.0031
   01/01/2000 17:00:00      0.229     0.000    0.0031
   01/01/2000 17:05:00      0.226     0.000    0.0030
   01/01/2000 17:10:00      0.226     0.000    0.0029
   01/01/2000 17:15:00      0.224     0.000    0.0029
   01/01/2000 17:20:00      0.221     0.000    0.0028
   01/01/2000 17:25:00      0.219     0.000    0.0028
   01/01/2000 17:30:00      0.216     0.000    0.0027
   01/01/2000 17:35:00      0.214     0.000    0.0027
   01/01/2000 17:40:00      0.214     0.000    0.0027
   01/01/2000 17:45:00      0.211     0.000    0.0026
   01/01/2000 17:50:00      0.209     0.000    0.0026
   01/01/2000 17:55:00      0.206     0.000    0.0026
   01/01/2000 18:00:00      0.204     0.000    0.0025
   01/01/2000 18:05:00      0.201     0.000    0.0025
   01/01/2000 18:10:00      0.201     0.000    0.0025
   01/01/2000 18:15:00      0.199     0.000    0.0024
   01/01/2000 18:20:00      0.196     0.000    0.0024
   01/01/2000 18:25:00      0.194     0.000    0.0024
   01/01/2000 18:30:00      0.191     0.000    0.0024
   01/01/2000 18:35:00      0.189     0.000    0.0023
   01/01/2000 18:40:00      0.189     0.000    0.0023
   01/01/2000 18:45:00      0.186     0.000    0.0023
   01/01/2000 18:50:00      0.184     0.000    0.0023
   01/01/2000 18:55:00      0.181     0.000    0.0022
   01/01/2000 19:00:00      0.179     0.000    0.0022
   01/01/2000 19:05:00      0.176     0.000    0.0022
   01/01/2000 19:10:00      0.176     0.000    0.0022
   01/01/2000 19:15:00      0.174     0.000    0.0021
   01/01/2000 19:20:00      0.171     0.000    0.0021
   01/01/2000 19:25:00      0.169     0.000    0.0021
   01/01/2000 19:30:00      0.166     0.000    0.0021
   01/01/2000 19:35:00      0.164     0.000    0.0020
   01/01/2000 19:40:00      0.164     0.000    0.0020
   01/01/2000 19:45:00      0.161     0.000    0.0020
   01/01/2000 19:50:00      0.159     0.000    0.0020
   01/01/2000 19:55:00      0.156     0.000    0.0020
   01/01/2000 20:00:00      0.154     0.000    0.0019
   01/01/2000 20:05:00      0.154     0.000    0.0019
   01/01/2000 20:10:00      0.151     0.000    0.0019
   01/01/2000 20:15:00      0.149     0.000    0.0019
   01/01/2000 20:20:00      0.146     0.000    0.0018
   01/01/2000 20:25:00      0.144     0.000    0.0018
   01/01/2000 20:30:00      0.141     0.000    0.0018
   01/01/2000 20:35:00      0.141     0.000    0.0018
   01/01/2000 20:40:00      0.139     0.000    0.0018
   01/01/2000 20:45:00      0.136     0.000    0.0017
   01/01/2000 20:50:00      0.134     0.000    0.0017
   01/01/2000 20:55:00      0.131     0.000    0.0017
   01/01/2000 21:00:00      0.130     0.000    0.0017
   01/01/2000 21:05:00      0.130     0.000    0.0016
   01/01/2000 21:10:00      0.129     0.000    0.0016
   01/01/2000 21:15:00      0.129     0.000    0.0016
   01/01/2000 21:20:00      0.128     0.000    0.0016
   01/01/2000 21:25:00      0.128     0.000    0.0016
   01/01/2000 21:30:00      0.127     0.000    0.0016
   01/01/2000 21:35:00      0.127     0.000    0.0015
   01/01/2000 21:40:00      0.127     0.000    0.0015
   01/01/2000 21:45:00      0.126     0.000    0.0015
   01/01/2000 21:50:00      0.126     0.000    0.0015
   01/01/2000 21:55:00      0.125     0.000    0.0015
   01/01/2000 22:00:00      0.125     0.000    0.0015
   01/01/2000 22:05:00      0.125     0.000    0.0015
   01/01/2000 22:10:00      0.124     0.000    0.0015
   01/01/2000 22:15:00      0.124     0.000    0.0015
   01/01/2000 22:20:00      0.123     0.000    0.0015
   01/01/2000 22:25:00      0.123     0.000    0.0014
   01/01/2000 22:30:00      0.122     0.000    0.0014
   01/01/2000 22:35:00      0.122     0.000    0.0014
   01/01/2000 22:40:00      0.122     0.000    0.0014
   01/01/2000 22:45:00      0.121     0.000    0.0014
   01/01/2000 22:50:00      0.121     0.000    0.0014
   01/01/2000 22:55:00      0.120     0.000    0.0014
   01/01/2000 23:00:00      0.120     0.000    0.0014
  
  
  ************
  Node Results
  ************
  
  <<< Node J3 >>>
  ----------------------------------------------------------------
                           Inflow  Flooding     Depth      Head
  Date        Time            CMS       CMS    meters    meters
  ----------------------------------------------------------------
   01/01/2000 01:05:00      0.000     0.000     0.001    93.001
   01/01/2000 01:10:00      0.000     0.000     0.001    93.001
   01/01/2000 01:15:00      0.000     0.000     0.002    93.002
   01/01/2000 01:20:00      0.000     0.000     0.003    93.003
   01/01/2000 01:25:00      0.000     0.000     0.004    93.004
   01/01/2000 01:30:00      0.000     0.000     0.005    93.005
   01/01/2000 01:35:00      0.000     0.000     0.005    93.005
   01/01/2000 01:40:00      0.000     0.000     0.006    93.006
   01/01/2000 01:45:00      0.000     0.000     0.007    93.007
   01/01/2000 01:50:00      0.000     0.000     0.007    93.007
   01/01/2000 01:55:00      0.000     0.000     0.008    93.008
   01/01/2000 02:00:00      0.000     0.000     0.008    93.008
   01/01/2000 02:05:00      0.000     0.000     0.009    93.009
   01/01/2000 02:10:00      0.000     0.000     0.009    93.009
   01/01/2000 02:15:00      0.000     0.000     0.010    93.010
   01/01/2000 02:20:00      0.000     0.000     0.010    93.010
   01/01/2000 02:25:00      0.000     0.000     0.011    93.011
   01/01/2000 02:30:00      0.000     0.000     0.011    93.011
   01/01/2000 02:35:00      0.000     0.000     0.011    93.011
   01/01/2000 02:40:00      0.001     0.000     0.012    93.012
   01/01/2000 02:45:00      0.001     0.000     0.012    93.012
   01/01/2000 02:50:00      0.001     0.000     0.012    93.012
   01/01/2000 02:55:00      0.001     0.000     0.012    93.012
   01/01/2000 03:00:00      0.001     0.000     0.013    93.013
   01/01/2000 03:05:00      0.001     0.000     0.013    93.013
   01/01/2000 03:10:00      0.001     0.000     0.013    93.013
   01/01/2000 03:15:00      0.001     0.000     0.013    93.013
   01/01/2000 03:20:00      0.001     0.000     0.014    93.014
   01/01/2000 03:25:00      0.001     0.000     0.014    93.014
   01/01/2000 03:30:00      0.001     0.000     0.014    93.014
   01/01/2000 03:35:00      0.001     0.000     0.014    93.014
   01/01/2000 03:40:00      0.001     0.000     0.014    93.014
   01/01/2000 03:45:00      0.001     0.000     0.014    93.014
   01/01/2000 03:50:00      0.001     0.000     0.014    93.014
   01/01/2000 03:55:00      0.001     0.000     0.015    93.015
   01/01/2000 04:00:00      0.001     0.000     0.015    93.015
   01/01/2000 04:05:00      0.001     0.000     0.015    93.015
   01/01/2000 04:10:00      0.001     0.000     0.015    93.015
   01/01/2000 04:15:00      0.001     0.000     0.015    93.015
   01/01/2000 04:20:00      0.001     0.000     0.015    93.015
   01/01/2000 04:25:00      0.001     0.000     0.015    93.015
   01/01/2000 04:30:00      0.001     0.000     0.015    93.015
   01/01/2000 04:35:00      0.001     0.000     0.015    93.015
   01/01/2000 04:40:00      0.001     0.000     0.016    93.016
   01/01/2000 04:45:00      0.001     0.000     0.016    93.016
   01/01/2000 04:50:00      0.001     0.000     0.016    93.016
   01/01/2000 04:55:00      0.001     0.000     0.016    93.016
   01/01/2000 05:00:00      0.001     0.000     0.016    93.016
   01/01/2000 05:05:00      0.001     0.000     0.016    93.016
   01/01/2000 05:10:00      0.001     0.000     0.016    93.016
   01/01/2000 05:15:00      0.001     0.000     0.016    93.016
   01/01/2000 05:20:00      0.001     0.000     0.016    93.016
   01/01/2000 05:25:00      0.001     0.000     0.016    93.016
   01/01/2000 05:30:00      0.001     0.000     0.016    93.016
   01/01/2000 05:35:00      0.001     0.000     0.016    93.016
   01/01/2000 05:40:00      0.001     0.000     0.016    93.016
   01/01/2000 05:45:00      0.001     0.000     0.017    93.017
   01/01/2000 05:50:00      0.001     0.000     0.017    93.017
   01/01/2000 05:55:00      0.001     0.000     0.017    93.017
   01/01/2000 06:00:00      0.001     0.000     0.017    93.017
   01/01/2000 06:05:00      0.001     0.000     0.017    93.017
   01/01/2000 06:10:00      0.001     0.000     0.017    93.017
   01/01/2000 06:15:00      0.001     0.000     0.017    93.017
   01/01/2000 06:20:00      0.001     0.000     0.017    93.017
   01/01/2000 06:25:00      0.001     0.000     0.017    93.017
   01/01/2000 06:30:00      0.001     0.000     0.017    93.017
   01/01/2000 06:35:00      0.001     0.000     0.017    93.017
   01/01/2000 06:40:00      0.001     0.000     0.017    93.017
   01/01/2000 06:45:00      0.001     0.000     0.018    93.018
   01/01/2000 06:50:00      0.001     0.000     0.018    93.018
   01/01/2000 06:55:00      0.001     0.000     0.018    93.018
   01/01/2000 07:00:00      0.001     0.000     0.018    93.018
   01/01/2000 07:05:00      0.001     0.000     0.018    93.018
   01/01/2000 07:10:00      0.001     0.000     0.018    93.018
   01/01/2000 07:15:00      0.001     0.000     0.018    93.018
   01/01/2000 07:20:00      0.001     0.000     0.018    93.018
   01/01/2000 07:25:00      0.001     0.000     0.018    93.018
   01/01/2000 07:30:00      0.001     0.000     0.018    93.018
   01/01/2000 07:35:00      0.001     0.000     0.018    93.018
   01/01/2000 07:40:00      0.001     0.000     0.018    93.018
   01/01/2000 07:45:00      0.001     0.000     0.019    93.019
   01/01/2000 07:50:00      0.001     0.000     0.019    93.019
   01/01/2000 07:55:00      0.001     0.000     0.019    93.019
   01/01/2000 08:00:00      0.001     0.000     0.019    93.019
   01/01/2000 08:05:00      0.001     0.000     0.019    93.019
   01/01/2000 08:10:00      0.001     0.000     0.019    93.019
   01/01/2000 08:15:00      0.001     0.000     0.019    93.019
   01/01/2000 08:20:00      0.001     0.000     0.019    93.019
   01/01/2000 08:25:00      0.001     0.000     0.019    93.019
   01/01/2000 08:30:00      0.002     0.000     0.019    93.019
   01/01/2000 08:35:00      0.002     0.000     0.019    93.019
   01/01/2000 08:40:00      0.002     0.000     0.019    93.019
   01/01/2000 08:45:00      0.002     0.000     0.020    93.020
   01/01/2000 08:50:00      0.002     0.000     0.020    93.020
   01/01/2000 08:55:00      0.002     0.000     0.020    93.020
   01/01/2000 09:00:00      0.002     0.000     0.020    93.020
   01/01/2000 09:05:00      0.002     0.000     0.020    93.020
   01/01/2000 09:10:00      0.002     0.000     0.020    93.020
   01/01/2000 09:15:00      0.002     0.000     0.020    93.020
   01/01/2000 09:20:00      0.002     0.000     0.020    93.020
   01/01/2000 09:25:00      0.002     0.000     0.020    93.020
   01/01/2000 09:30:00      0.002     0.000     0.021    93.021
   01/01/2000 09:35:00      0.002     0.000     0.021    93.021
   01/01/2000 09:40:00      0.002     0.000     0.021    93.021
   01/01/2000 09:45:00      0.002     0.000     0.021    93.021
   01/01/2000 09:50:00      0.002     0.000     0.022    93.022
   01/01/2000 09:55:00      0.002     0.000     0.022    93.022
   01/01/2000 10:00:00      0.002     0.000     0.022    93.022
   01/01/2000 10:05:00      0.002     0.000     0.022    93.022
   01/01/2000 10:10:00      0.002     0.000     0.023    93.023
   01/01/2000 10:15:00      0.002     0.000     0.023    93.023
   01/01/2000 10:20:00      0.002     0.000     0.023    93.023
   01/01/2000 10:25:00      0.002     0.000     0.023    93.023
   01/01/2000 10:30:00      0.002     0.000     0.023    93.023
   01/01/2000 10:35:00      0.002     0.000     0.024    93.024
   01/01/2000 10:40:00      0.002     0.000     0.024    93.024
   01/01/2000 10:45:00      0.002     0.000     0.024    93.024
   01/01/2000 10:50:00      0.002     0.000     0.024    93.024
   01/01/2000 10:55:00      0.003     0.000     0.024    93.024
   01/01/2000 11:00:00      0.003     0.000     0.025    93.025
   01/01/2000 11:05:00      0.003     0.000     0.025    93.025
   01/01/2000 11:10:00      0.003     0.000     0.025    93.025
   01/01/2000 11:15:00      0.003     0.000     0.026    93.026
   01/01/2000 11:20:00      0.003     0.000     0.026    93.026
   01/01/2000 11:25:00      0.003     0.000     0.027    93.027
   01/01/2000 11:30:00      0.003     0.000     0.028    93.028
   01/01/2000 11:35:00      0.005     0.000     0.032    93.032
   01/01/2000 11:40:00      0.005     0.000     0.034    93.034
   01/01/2000 11:45:00      0.005     0.000     0.034    93.034
   01/01/2000 11:50:00      0.006     0.000     0.035    93.035
   01/01/2000 11:55:00      0.006     0.000     0.036    93.036
   01/01/2000 12:00:00      0.006     0.000     0.037    93.037
   01/01/2000 12:05:00      0.006     0.000     0.038    93.038
   01/01/2000 12:10:00      0.007     0.000     0.039    93.039
   01/01/2000 12:15:00      0.007     0.000     0.041    93.041
   01/01/2000 12:20:00      0.008     0.000     0.042    93.042
   01/01/2000 12:25:00      0.009     0.000     0.044    93.044
   01/01/2000 12:30:00      0.010     0.000     0.045    93.045
   01/01/2000 12:35:00      0.013     0.000     0.052    93.052
   01/01/2000 12:40:00      0.021     0.000     0.065    93.065
   01/01/2000 12:45:00      0.034     0.000     0.082    93.082
   01/01/2000 12:50:00      0.059     0.000     0.106    93.106
   01/01/2000 12:55:00      0.090     0.000     0.129    93.129
   01/01/2000 13:00:00      0.096     0.000     0.133    93.133
   01/01/2000 13:05:00      0.069     0.000     0.115    93.115
   01/01/2000 13:10:00      0.052     0.000     0.101    93.101
   01/01/2000 13:15:00      0.041     0.000     0.090    93.090
   01/01/2000 13:20:00      0.033     0.000     0.081    93.081
   01/01/2000 13:25:00      0.028     0.000     0.075    93.075
   01/01/2000 13:30:00      0.023     0.000     0.069    93.069
   01/01/2000 13:35:00      0.020     0.000     0.064    93.064
   01/01/2000 13:40:00      0.017     0.000     0.060    93.060
   01/01/2000 13:45:00      0.015     0.000     0.057    93.057
   01/01/2000 13:50:00      0.014     0.000     0.054    93.054
   01/01/2000 13:55:00      0.013     0.000     0.052    93.052
   01/01/2000 14:00:00      0.011     0.000     0.049    93.049
   01/01/2000 14:05:00      0.011     0.000     0.048    93.048
   01/01/2000 14:10:00      0.010     0.000     0.046    93.046
   01/01/2000 14:15:00      0.009     0.000     0.044    93.044
   01/01/2000 14:20:00      0.009     0.000     0.043    93.043
   01/01/2000 14:25:00      0.008     0.000     0.042    93.042
   01/01/2000 14:30:00      0.008     0.000     0.041    93.041
   01/01/2000 14:35:00      0.007     0.000     0.040    93.040
   01/01/2000 14:40:00      0.007     0.000     0.039    93.039
   01/01/2000 14:45:00      0.006     0.000     0.038    93.038
   01/01/2000 14:50:00      0.006     0.000     0.037    93.037
   01/01/2000 14:55:00      0.006     0.000     0.036    93.036
   01/01/2000 15:00:00      0.006     0.000     0.036    93.036
   01/01/2000 15:05:00      0.005     0.000     0.035    93.035
   01/01/2000 15:10:00      0.005     0.000     0.034    93.034
   01/01/2000 15:15:00      0.005     0.000     0.034    93.034
   01/01/2000 15:20:00      0.005     0.000     0.033    93.033
   01/01/2000 15:25:00      0.005     0.000     0.033    93.033
   01/01/2000 15:30:00      0.005     0.000     0.032    93.032
   01/01/2000 15:35:00      0.004     0.000     0.032    93.032
   01/01/2000 15:40:00      0.004     0.000     0.031    93.031
   01/01/2000 15:45:00      0.004     0.000     0.031    93.031
   01/01/2000 15:50:00      0.004     0.000     0.031    93.031
   01/01/2000 15:55:00      0.004     0.000     0.030    93.030
   01/01/2000 16:00:00      0.004     0.000     0.030    93.030
   01/01/2000 16:05:00      0.004     0.000     0.030    93.030
   01/01/2000 16:10:00      0.004     0.000     0.030    93.030
   01/01/2000 16:15:00      0.004     0.000     0.029    93.029
   01/01/2000 16:20:00      0.004     0.000     0.029    93.029
   01/01/2000 16:25:00      0.004     0.000     0.029    93.029
   01/01/2000 16:30:00      0.003     0.000     0.028    93.028
   01/01/2000 16:35:00      0.003     0.000     0.028    93.028
   01/01/2000 16:40:00      0.003     0.000     0.028    93.028
   01/01/2000 16:45:00      0.003     0.000     0.028    93.028
   01/01/2000 16:50:00      0.003     0.000     0.027    93.027
   01/01/2000 16:55:00      0.003     0.000     0.027    93.027
   01/01/2000 17:00:00      0.003     0.000     0.027    93.027
   01/01/2000 17:05:00      0.003     0.000     0.027    93.027
   01/01/2000 17:10:00      0.003     0.000     0.026    93.026
   01/01/2000 17:15:00      0.003     0.000     0.026    93.026
   01/01/2000 17:20:00      0.003     0.000     0.026    93.026
   01/01/2000 17:25:00      0.003     0.000     0.026    93.026
   01/01/2000 17:30:00      0.003     0.000     0.025    93.025
   01/01/2000 17:35:00      0.003     0.000     0.025    93.025
   01/01/2000 17:40:00      0.003     0.000     0.025    93.025
   01/01/2000 17:45:00      0.003     0.000     0.025    93.025
   01/01/2000 17:50:00      0.003     0.000     0.025    93.025
   01/01/2000 17:55:00      0.003     0.000     0.025    93.025
   01/01/2000 18:00:00      0.003     0.000     0.025    93.025
   01/01/2000 18:05:00      0.003     0.000     0.024    93.024
   01/01/2000 18:10:00      0.002     0.000     0.024    93.024
   01/01/2000 18:15:00      0.002     0.000     0.024    93.024
   01/01/2000 18:20:00      0.002     0.000     0.024    93.024
   01/01/2000 18:25:00      0.002     0.000     0.024    93.024
   01/01/2000 18:30:00      0.002     0.000     0.024    93.024
   01/01/2000 18:35:00      0.002     0.000     0.024    93.024
   01/01/2000 18:40:00      0.002     0.000     0.024    93.024
   01/01/2000 18:45:00      0.002     0.000     0.023    93.023
   01/01/2000 18:50:00      0.002     0.000     0.023    93.023
   01/01/2000 18:55:00      0.002     0.000     0.023    93.023
   01/01/2000 19:00:00      0.002     0.000     0.023    93.023
   01/01/2000 19:05:00      0.002     0.000     0.023    93.023
   01/01/2000 19:10:00      0.002     0.000     0.023    93.023
   01/01/2000 19:15:00      0.002     0.000     0.023    93.023
   01/01/2000 19:20:00      0.002     0.000     0.023    93.023
   01/01/2000 19:25:00      0.002     0.000     0.022    93.022
   01/01/2000 19:30:00      0.002     0.000     0.022    93.022
   01/01/2000 19:35:00      0.002     0.000     0.022    93.022
   01/01/2000 19:40:00      0.002     0.000     0.022    93.022
   01/01/2000 19:45:00      0.002     0.000     0.022    93.022
   01/01/2000 19:50:00      0.002     0.000     0.022    93.022
   01/01/2000 19:55:00      0.002     0.000     0.022    93.022
   01/01/2000 20:00:00      0.002     0.000     0.022    93.022
   01/01/2000 20:05:00      0.002     0.000     0.022    93.022
   01/01/2000 20:10:00      0.002     0.000     0.021    93.021
   01/01/2000 20:15:00      0.002     0.000     0.021    93.021
   01/01/2000 20:20:00      0.002     0.000     0.021    93.021
   01/01/2000 20:25:00      0.002     0.000     0.021    93.021
   01/01/2000 20:30:00      0.002     0.000     0.021    93.021
   01/01/2000 20:35:00      0.002     0.000     0.021    93.021
   01/01/2000 20:40:00      0.002     0.000     0.021    93.021
   01/01/2000 20:45:00      0.002     0.000     0.021    93.021
   01/01/2000 20:50:00      0.002     0.000     0.020    93.020
   01/01/2000 20:55:00      0.002     0.000     0.020    93.020
   01/01/2000 21:00:00      0.002     0.000     0.020    93.020
   01/01/2000 21:05:00      0.002     0.000     0.020    93.020
   01/01/2000 21:10:00      0.002     0.000     0.020    93.020
   01/01/2000 21:15:00      0.002     0.000     0.020    93.020
   01/01/2000 21:20:00      0.002     0.000     0.020    93.020
   01/01/2000 21:25:00      0.002     0.000     0.020    93.020
   01/01/2000 21:30:00      0.002     0.000     0.020    93.020
   01/01/2000 21:35:00      0.002     0.000     0.020    93.020
   01/01/2000 21:40:00      0.002     0.000     0.019    93.019
   01/01/2000 21:45:00      0.002     0.000     0.019    93.019
   01/01/2000 21:50:00      0.002     0.000     0.019    93.019
   01/01/2000 21:55:00      0.002     0.000     0.019    93.019
   01/01/2000 22:00:00      0.001     0.000     0.019    93.019
   01/01/2000 22:05:00      0.001     0.000     0.019    93.019
   01/01/2000 22:10:00      0.001     0.000     0.019    93.019
   01/01/2000 22:15:00      0.001     0.000     0.019    93.019
   01/01/2000 22:20:00      0.001     0.000     0.019    93.019
   01/01/2000 22:25:00      0.001     0.000     0.019    93.019
   01/01/2000 22:30:00      0.001     0.000     0.019    93.019
   01/01/2000 22:35:00      0.001     0.000     0.019    93.019
   01/01/2000 22:40:00      0.001     0.000     0.019    93.019
   01/01/2000 22:45:00      0.001     0.000     0.019    93.019
   01/01/2000 22:50:00      0.001     0.000     0.019    93.019
   01/01/2000 22:55:00      0.001     0.000     0.019    93.019
   01/01/2000 23:00:00      0.001     0.000     0.019    93.019
  
  
  <<< Node J1 >>>
  ----------------------------------------------------------------
                           Inflow  Flooding     Depth      Head
  Date        Time            CMS       CMS    meters    meters
  ----------------------------------------------------------------
   01/01/2000 01:05:00      0.000     0.000     0.000    96.000
   01/01/2000 01:10:00      0.000     0.000     0.001    96.001
   01/01/2000 01:15:00      0.000     0.000     0.001    96.001
   01/01/2000 01:20:00      0.000     0.000     0.001    96.001
   01/01/2000 01:25:00      0.000     0.000     0.002    96.002
   01/01/2000 01:30:00      0.000     0.000     0.002    96.002
   01/01/2000 01:35:00      0.000     0.000     0.003    96.003
   01/01/2000 01:40:00      0.000     0.000     0.003    96.003
   01/01/2000 01:45:00      0.000     0.000     0.003    96.003
   01/01/2000 01:50:00      0.000     0.000     0.004    96.004
   01/01/2000 01:55:00      0.000     0.000     0.004    96.004
   01/01/2000 02:00:00      0.000     0.000     0.004    96.004
   01/01/2000 02:05:00      0.000     0.000     0.005    96.005
   01/01/2000 02:10:00      0.000     0.000     0.005    96.005
   01/01/2000 02:15:00      0.001     0.000     0.005    96.005
   01/01/2000 02:20:00      0.001     0.000     0.005    96.005
   01/01/2000 02:25:00      0.001     0.000     0.005    96.005
   01/01/2000 02:30:00      0.001     0.000     0.005    96.005
   01/01/2000 02:35:00      0.001     0.000     0.006    96.006
   01/01/2000 02:40:00      0.001     0.000     0.006    96.006
   01/01/2000 02:45:00      0.001     0.000     0.006    96.006
   01/01/2000 02:50:00      0.001     0.000     0.006    96.006
   01/01/2000 02:55:00      0.001     0.000     0.006    96.006
   01/01/2000 03:00:00      0.001     0.000     0.006    96.006
   01/01/2000 03:05:00      0.001     0.000     0.006    96.006
   01/01/2000 03:10:00      0.001     0.000     0.006    96.006
   01/01/2000 03:15:00      0.001     0.000     0.006    96.006
   01/01/2000 03:20:00      0.001     0.000     0.006    96.006
   01/01/2000 03:25:00      0.001     0.000     0.006    96.006
   01/01/2000 03:30:00      0.001     0.000     0.006    96.006
   01/01/2000 03:35:00      0.001     0.000     0.006    96.006
   01/01/2000 03:40:00      0.001     0.000     0.006    96.006
   01/01/2000 03:45:00      0.001     0.000     0.006    96.006
   01/01/2000 03:50:00      0.001     0.000     0.006    96.006
   01/01/2000 03:55:00      0.001     0.000     0.006    96.006
   01/01/2000 04:00:00      0.001     0.000     0.006    96.006
   01/01/2000 04:05:00      0.001     0.000     0.006    96.006
   01/01/2000 04:10:00      0.001     0.000     0.006    96.006
   01/01/2000 04:15:00      0.001     0.000     0.006    96.006
   01/01/2000 04:20:00      0.001     0.000     0.007    96.007
   01/01/2000 04:25:00      0.001     0.000     0.007    96.007
   01/01/2000 04:30:00      0.001     0.000     0.007    96.007
   01/01/2000 04:35:00      0.001     0.000     0.007    96.007
   01/01/2000 04:40:00      0.001     0.000     0.007    96.007
   01/01/2000 04:45:00      0.001     0.000     0.007    96.007
   01/01/2000 04:50:00      0.001     0.000     0.007    96.007
   01/01/2000 04:55:00      0.001     0.000     0.007    96.007
   01/01/2000 05:00:00      0.001     0.000     0.007    96.007
   01/01/2000 05:05:00      0.001     0.000     0.007    96.007
   01/01/2000 05:10:00      0.001     0.000     0.007    96.007
   01/01/2000 05:15:00      0.001     0.000     0.007    96.007
   01/01/2000 05:20:00      0.001     0.000     0.007    96.007
   01/01/2000 05:25:00      0.001     0.000     0.007    96.007
   01/01/2000 05:30:00      0.001     0.000     0.007    96.007
   01/01/2000 05:35:00      0.001     0.000     0.007    96.007
   01/01/2000 05:40:00      0.001     0.000     0.007    96.007
   01/01/2000 05:45:00      0.001     0.000     0.007    96.007
   01/01/2000 05:50:00      0.001     0.000     0.007    96.007
   01/01/2000 05:55:00      0.001     0.000     0.007    96.007
   01/01/2000 06:00:00      0.001     0.000     0.007    96.007
   01/01/2000 06:05:00      0.001     0.000     0.007    96.007
   01/01/2000 06:10:00      0.001     0.000     0.007    96.007
   01/01/2000 06:15:00      0.001     0.000     0.007    96.007
   01/01/2000 06:20:00      0.001     0.000     0.007    96.007
   01/01/2000 06:25:00      0.001     0.000     0.007    96.007
   01/01/2000 06:30:00      0.001     0.000     0.007    96.007
   01/01/2000 06:35:00      0.001     0.000     0.007    96.007
   01/01/2000 06:40:00      0.001     0.000     0.007    96.007
   01/01/2000 06:45:00      0.001     0.000     0.007    96.007
   01/01/2000 06:50:00      0.001     0.000     0.007    96.007
   01/01/2000 06:55:00      0.001     0.000     0.007    96.007
   01/01/2000 07:00:00      0.001     0.000     0.007    96.007
   01/01/2000 07:05:00      0.001     0.000     0.007    96.007
   01/01/2000 07:10:00      0.001     0.000     0.008    96.008
   01/01/2000 07:15:00      0.001     0.000     0.008    96.008
   01/01/2000 07:20:00      0.001     0.000     0.008    96.008
   01/01/2000 07:25:00      0.001     0.000     0.008    96.008
   01/01/2000 07:30:00      0.001     0.000     0.008    96.008
   01/01/2000 07:35:00      0.001     0.000     0.008    96.008
   01/01/2000 07:40:00      0.001     0.000     0.008    96.008
   01/01/2000 07:45:00      0.001     0.000     0.008    96.008
   01/01/2000 07:50:00      0.001     0.000     0.008    96.008
   01/01/2000 07:55:00      0.001     0.000     0.008    96.008
   01/01/2000 08:00:00      0.001     0.000     0.008    96.008
   01/01/2000 08:05:00      0.001     0.000     0.008    96.008
   01/01/2000 08:10:00      0.001     0.000     0.008    96.008
   01/01/2000 08:15:00      0.001     0.000     0.008    96.008
   01/01/2000 08:20:00      0.001     0.000     0.008    96.008
   01/01/2000 08:25:00      0.001     0.000     0.008    96.008
   01/01/2000 08:30:00      0.001     0.000     0.008    96.008
   01/01/2000 08:35:00      0.001     0.000     0.008    96.008
   01/01/2000 08:40:00      0.001     0.000     0.008    96.008
   01/01/2000 08:45:00      0.001     0.000     0.008    96.008
   01/01/2000 08:50:00      0.001     0.000     0.008    96.008
   01/01/2000 08:55:00      0.001     0.000     0.008    96.008
   01/01/2000 09:00:00      0.002     0.000     0.008    96.008
   01/01/2000 09:05:00      0.002     0.000     0.008    96.008
   01/01/2000 09:10:00      0.002     0.000     0.008    96.008
   01/01/2000 09:15:00      0.002     0.000     0.008    96.008
   01/01/2000 09:20:00      0.002     0.000     0.009    96.009
   01/01/2000 09:25:00      0.002     0.000     0.009    96.009
   01/01/2000 09:30:00      0.002     0.000     0.009    96.009
   01/01/2000 09:35:00      0.002     0.000     0.009    96.009
   01/01/2000 09:40:00      0.002     0.000     0.009    96.009
   01/01/2000 09:45:00      0.002     0.000     0.009    96.009
   01/01/2000 09:50:00      0.002     0.000     0.009    96.009
   01/01/2000 09:55:00      0.002     0.000     0.009    96.009
   01/01/2000 10:00:00      0.002     0.000     0.009    96.009
   01/01/2000 10:05:00      0.002     0.000     0.010    96.010
   01/01/2000 10:10:00      0.002     0.000     0.010    96.010
   01/01/2000 10:15:00      0.002     0.000     0.010    96.010
   01/01/2000 10:20:00      0.002     0.000     0.010    96.010
   01/01/2000 10:25:00      0.002     0.000     0.010    96.010
   01/01/2000 10:30:00      0.002     0.000     0.010    96.010
   01/01/2000 10:35:00      0.002     0.000     0.010    96.010
   01/01/2000 10:40:00      0.002     0.000     0.010    96.010
   01/01/2000 10:45:00      0.002     0.000     0.010    96.010
   01/01/2000 10:50:00      0.002     0.000     0.010    96.010
   01/01/2000 10:55:00      0.002     0.000     0.010    96.010
   01/01/2000 11:00:00      0.003     0.000     0.010    96.010
   01/01/2000 11:05:00      0.003     0.000     0.011    96.011
   01/01/2000 11:10:00      0.003     0.000     0.011    96.011
   01/01/2000 11:15:00      0.003     0.000     0.011    96.011
   01/01/2000 11:20:00      0.003     0.000     0.011    96.011
   01/01/2000 11:25:00      0.003     0.000     0.012    96.012
   01/01/2000 11:30:00      0.003     0.000     0.012    96.012
   01/01/2000 11:35:00      0.003     0.000     0.012    96.012
   01/01/2000 11:40:00      0.004     0.000     0.012    96.012
   01/01/2000 11:45:00      0.004     0.000     0.013    96.013
   01/01/2000 11:50:00      0.004     0.000     0.013    96.013
[...]
   01/01/2000 19:35:00      0.001     1.312     0.008     0.001
   01/01/2000 19:40:00      0.001     1.302     0.008     0.001
   01/01/2000 19:45:00      0.001     1.293     0.008     0.001
   01/01/2000 19:50:00      0.001     1.284     0.008     0.001
   01/01/2000 19:55:00      0.001     1.274     0.008     0.001
   01/01/2000 20:00:00      0.001     1.265     0.008     0.001
   01/01/2000 20:05:00      0.001     1.256     0.008     0.001
   01/01/2000 20:10:00      0.001     1.247     0.008     0.001
   01/01/2000 20:15:00      0.001     1.238     0.008     0.001
   01/01/2000 20:20:00      0.001     1.228     0.008     0.001
   01/01/2000 20:25:00      0.001     1.219     0.008     0.001
   01/01/2000 20:30:00      0.001     1.210     0.007     0.001
   01/01/2000 20:35:00      0.001     1.201     0.007     0.001
   01/01/2000 20:40:00      0.001     1.191     0.007     0.001
   01/01/2000 20:45:00      0.001     1.182     0.007     0.001
   01/01/2000 20:50:00      0.001     1.172     0.007     0.001
   01/01/2000 20:55:00      0.001     1.163     0.007     0.001
   01/01/2000 21:00:00      0.001     1.153     0.007     0.001
   01/01/2000 21:05:00      0.001     1.143     0.007     0.001
   01/01/2000 21:10:00      0.001     1.134     0.007     0.001
   01/01/2000 21:15:00      0.001     1.126     0.007     0.001
   01/01/2000 21:20:00      0.001     1.118     0.007     0.001
   01/01/2000 21:25:00      0.001     1.111     0.007     0.001
   01/01/2000 21:30:00      0.001     1.105     0.007     0.001
   01/01/2000 21:35:00      0.001     1.099     0.007     0.001
   01/01/2000 21:40:00      0.001     1.093     0.007     0.001
   01/01/2000 21:45:00      0.001     1.088     0.007     0.001
   01/01/2000 21:50:00      0.001     1.083     0.007     0.001
   01/01/2000 21:55:00      0.001     1.079     0.007     0.001
   01/01/2000 22:00:00      0.001     1.075     0.007     0.001
   01/01/2000 22:05:00      0.001     1.070     0.007     0.001
   01/01/2000 22:10:00      0.001     1.067     0.007     0.001
   01/01/2000 22:15:00      0.001     1.063     0.007     0.001
   01/01/2000 22:20:00      0.001     1.060     0.007     0.001
   01/01/2000 22:25:00      0.001     1.056     0.007     0.001
   01/01/2000 22:30:00      0.001     1.053     0.006     0.001
   01/01/2000 22:35:00      0.001     1.050     0.006     0.001
   01/01/2000 22:40:00      0.001     1.047     0.006     0.001
   01/01/2000 22:45:00      0.001     1.045     0.006     0.001
   01/01/2000 22:50:00      0.001     1.042     0.006     0.001
   01/01/2000 22:55:00      0.001     1.039     0.006     0.001
   01/01/2000 23:00:00      0.001     1.037     0.006     0.001
  
  
  <<< Link C5 >>>
  ----------------------------------------------------------------
                             Flow  Velocity     Depth  Capacity/
  Date        Time            CMS     m/sec    meters   Setting 
  ----------------------------------------------------------------
   01/01/2000 01:05:00      0.000     0.000     0.000     0.000
   01/01/2000 01:10:00      0.000     0.000     0.000     0.000
   01/01/2000 01:15:00      0.000     0.000     0.000     0.000
   01/01/2000 01:20:00      0.000     0.000     0.000     0.000
   01/01/2000 01:25:00      0.000     0.000     0.000     0.000
   01/01/2000 01:30:00      0.000     0.000     0.000     0.000
   01/01/2000 01:35:00      0.000     0.000     0.000     0.000
   01/01/2000 01:40:00      0.000     0.000     0.000     0.000
   01/01/2000 01:45:00      0.000     0.000     0.000     0.000
   01/01/2000 01:50:00      0.000     0.000     0.000     0.000
   01/01/2000 01:55:00      0.000     0.000     0.000     0.000
   01/01/2000 02:00:00      0.000     0.000     0.000     0.000
   01/01/2000 02:05:00      0.000     0.000     0.000     0.000
   01/01/2000 02:10:00      0.000     0.000     0.000     0.000
   01/01/2000 02:15:00      0.000     0.000     0.000     0.000
   01/01/2000 02:20:00      0.000     0.000     0.000     0.000
   01/01/2000 02:25:00      0.000     0.000     0.000     0.000
   01/01/2000 02:30:00      0.000     0.000     0.000     0.000
   01/01/2000 02:35:00      0.000     0.000     0.000     0.000
   01/01/2000 02:40:00      0.000     0.000     0.000     0.000
   01/01/2000 02:45:00      0.000     0.000     0.000     0.000
   01/01/2000 02:50:00      0.000     0.000     0.000     0.000
   01/01/2000 02:55:00      0.000     0.000     0.000     0.000
   01/01/2000 03:00:00      0.000     0.000     0.000     0.000
   01/01/2000 03:05:00      0.000     0.000     0.000     0.000
   01/01/2000 03:10:00      0.000     0.000     0.000     0.000
   01/01/2000 03:15:00      0.000     0.000     0.000     0.000
   01/01/2000 03:20:00      0.000     0.000     0.000     0.000
   01/01/2000 03:25:00      0.000     0.000     0.000     0.000
   01/01/2000 03:30:00      0.000     0.000     0.000     0.000
   01/01/2000 03:35:00      0.000     0.000     0.000     0.000
   01/01/2000 03:40:00      0.000     0.000     0.000     0.000
   01/01/2000 03:45:00      0.000     0.000     0.000     0.000
   01/01/2000 03:50:00      0.000     0.000     0.000     0.000
   01/01/2000 03:55:00      0.000     0.000     0.000     0.000
   01/01/2000 04:00:00      0.000     0.000     0.000     0.000
   01/01/2000 04:05:00      0.000     0.000     0.000     0.000
   01/01/2000 04:10:00      0.000     0.000     0.000     0.000
   01/01/2000 04:15:00      0.000     0.000     0.000     0.000
   01/01/2000 04:20:00      0.000     0.000     0.000     0.000
   01/01/2000 04:25:00      0.000     0.000     0.000     0.000
   01/01/2000 04:30:00      0.000     0.000     0.000     0.000
   01/01/2000 04:35:00      0.000     0.000     0.000     0.000
   01/01/2000 04:40:00      0.000     0.000     0.000     0.000
   01/01/2000 04:45:00      0.000     0.000     0.000     0.000
   01/01/2000 04:50:00      0.000     0.000     0.000     0.000
   01/01/2000 04:55:00      0.000     0.000     0.000     0.000
   01/01/2000 05:00:00      0.000     0.000     0.000     0.000
   01/01/2000 05:05:00      0.000     0.000     0.000     0.000
   01/01/2000 05:10:00      0.000     0.000     0.000     0.000
   01/01/2000 05:15:00      0.000     0.000     0.000     0.000
   01/01/2000 05:20:00      0.000     0.000     0.000     0.000
   01/01/2000 05:25:00      0.000     0.000     0.000     0.000
   01/01/2000 05:30:00      0.000     0.000     0.000     0.000
   01/01/2000 05:35:00      0.000     0.000     0.000     0.000
   01/01/2000 05:40:00      0.000     0.000     0.000     0.000
   01/01/2000 05:45:00      0.000     0.000     0.000     0.000
   01/01/2000 05:50:00      0.000     0.000     0.000     0.000
   01/01/2000 05:55:00      0.000     0.000     0.000     0.000
   01/01/2000 06:00:00      0.000     0.000     0.000     0.000
   01/01/2000 06:05:00      0.000     0.000     0.000     0.000
   01/01/2000 06:10:00      0.000     0.000     0.000     0.000
   01/01/2000 06:15:00      0.000     0.000     0.000     0.000
   01/01/2000 06:20:00      0.000     0.000     0.000     0.000
   01/01/2000 06:25:00      0.000     0.000     0.000     0.000
   01/01/2000 06:30:00      0.000     0.000     0.000     0.000
   01/01/2000 06:35:00      0.000     0.000     0.000     0.000
   01/01/2000 06:40:00      0.000     0.000     0.000     0.000
   01/01/2000 06:45:00      0.000     0.000     0.000     0.000
   01/01/2000 06:50:00      0.000     0.000     0.000     0.000
   01/01/2000 06:55:00      0.000     0.000     0.000     0.000
   01/01/2000 07:00:00      0.000     0.000     0.000     0.000
   01/01/2000 07:05:00      0.000     0.000     0.000     0.000
   01/01/2000 07:10:00      0.000     0.000     0.000     0.000
   01/01/2000 07:15:00      0.000     0.000     0.000     0.000
   01/01/2000 07:20:00      0.000     0.000     0.000     0.000
   01/01/2000 07:25:00      0.000     0.000     0.000     0.000
   01/01/2000 07:30:00      0.000     0.000     0.000     0.000
   01/01/2000 07:35:00      0.000     0.000     0.000     0.000
   01/01/2000 07:40:00      0.000     0.000     0.000     0.000
   01/01/2000 07:45:00      0.000     0.000     0.000     0.000
   01/01/2000 07:50:00      0.000     0.000     0.000     0.000
   01/01/2000 07:55:00      0.000     0.000     0.000     0.000
   01/01/2000 08:00:00      0.000     0.000     0.000     0.000
   01/01/2000 08:05:00      0.000     0.000     0.000     0.000
   01/01/2000 08:10:00      0.000     0.000     0.000     0.000
   01/01/2000 08:15:00      0.000     0.000     0.000     0.000
   01/01/2000 08:20:00      0.000     0.000     0.000     0.000
   01/01/2000 08:25:00      0.000     0.000     0.000     0.000
   01/01/2000 08:30:00      0.000     0.000     0.000     0.000
   01/01/2000 08:35:00      0.000     0.000     0.000     0.000
   01/01/2000 08:40:00      0.000     0.000     0.000     0.000
   01/01/2000 08:45:00      0.000     0.000     0.000     0.000
   01/01/2000 08:50:00      0.000     0.000     0.000     0.000
   01/01/2000 08:55:00      0.000     0.000     0.000     0.000
   01/01/2000 09:00:00      0.000     0.000     0.000     0.000
   01/01/2000 09:05:00      0.000     0.000     0.000     0.000
   01/01/2000 09:10:00      0.000     0.000     0.000     0.000
   01/01/2000 09:15:00      0.000     0.000     0.000     0.000
   01/01/2000 09:20:00      0.000     0.000     0.000     0.000
   01/01/2000 09:25:00      0.000     0.000     0.000     0.000
   01/01/2000 09:30:00      0.000     0.000     0.000     0.000
   01/01/2000 09:35:00      0.000     0.000     0.000     0.000
   01/01/2000 09:40:00      0.000     0.000     0.000     0.000
   01/01/2000 09:45:00      0.000     0.000     0.000     0.000
   01/01/2000 09:50:00      0.000     0.000     0.000     0.000
   01/01/2000 09:55:00      0.000     0.000     0.000     0.000
   01/01/2000 10:00:00      0.000     0.000     0.000     0.000
   01/01/2000 10:05:00      0.000     0.000     0.000     0.000
   01/01/2000 10:10:00      0.000     0.000     0.000     0.000
   01/01/2000 10:15:00      0.000     0.000     0.000     0.000
   01/01/2000 10:20:00      0.000     0.000     0.000     0.000
   01/01/2000 10:25:00      0.000     0.000     0.000     0.000
   01/01/2000 10:30:00      0.000     0.000     0.000     0.000
   01/01/2000 10:35:00      0.000     0.000     0.000     0.000
   01/01/2000 10:40:00      0.000     0.000     0.000     0.000
   01/01/2000 10:45:00      0.000     0.000     0.000     0.000
   01/01/2000 10:50:00      0.000     0.000     0.000     0.000
   01/01/2000 10:55:00      0.000     0.000     0.000     0.000
   01/01/2000 11:00:00      0.000     0.000     0.000     0.000
   01/01/2000 11:05:00      0.000     0.000     0.000     0.000
   01/01/2000 11:10:00      0.000     0.000     0.000     0.000
   01/01/2000 11:15:00      0.000     0.000     0.000     0.000
   01/01/2000 11:20:00      0.000     0.000     0.000     0.000
   01/01/2000 11:25:00      0.000     0.000     0.000     0.000
   01/01/2000 11:30:00      0.000     0.000     0.000     0.000
   01/01/2000 11:35:00      0.000     0.000     0.000     0.000
   01/01/2000 11:40:00      0.000     0.000     0.000     0.000
   01/01/2000 11:45:00      0.000     0.000     0.000     0.000
   01/01/2000 11:50:00      0.000     0.000     0.000     0.000
   01/01/2000 11:55:00      0.000     0.000     0.000     0.000
   01/01/2000 12:00:00      0.000     0.000     0.000     0.000
   01/01/2000 12:05:00      0.000     0.000     0.000     0.000
   01/01/2000 12:10:00      0.000     0.000     0.000     0.000
   01/01/2000 12:15:00      0.000     0.000     0.000     0.000
   01/01/2000 12:20:00      0.000     0.000     0.000     0.000
   01/01/2000 12:25:00      0.000     0.000     0.000     0.000
   01/01/2000 12:30:00      0.000     0.000     0.000     0.000
   01/01/2000 12:35:00      0.000     0.000     0.000     0.000
   01/01/2000 12:40:00      0.000     0.000     0.000     0.000
   01/01/2000 12:45:00      0.000     0.000     0.000     0.000
   01/01/2000 12:50:00      0.000     0.000     0.000     0.000
   01/01/2000 12:55:00      0.000     0.000     0.000     0.000
   01/01/2000 13:00:00      0.000     0.000     0.000     0.000
   01/01/2000 13:05:00      0.000     0.000     0.000     0.000
   01/01/2000 13:10:00      0.000     0.000     0.000     0.000
   01/01/2000 13:15:00      0.000     0.000     0.000     0.000
   01/01/2000 13:20:00      0.000     0.000     0.000     0.000
   01/01/2000 13:25:00      0.000     0.000     0.000     0.000
   01/01/2000 13:30:00      0.000     0.000     0.000     0.000
   01/01/2000 13:35:00      0.000     0.000     0.000     0.000
   01/01/2000 13:40:00      0.000     0.000     0.000     0.000
   01/01/2000 13:45:00      0.000     0.000     0.000     0.000
   01/01/2000 13:50:00      0.000     0.000     0.000     0.000
   01/01/2000 13:55:00      0.000     0.000     0.000     0.000
   01/01/2000 14:00:00      0.000     0.000     0.000     0.000
   01/01/2000 14:05:00      0.000     0.000     0.000     0.000
   01/01/2000 14:10:00      0.000     0.000     0.000     0.000
   01/01/2000 14:15:00      0.000     0.000     0.000     0.000
   01/01/2000 14:20:00      0.000     0.000     0.000     0.000
   01/01/2000 14:25:00      0.000     0.000     0.000     0.000
   01/01/2000 14:30:00      0.000     0.000     0.000     0.000
   01/01/2000 14:35:00      0.000     0.000     0.000     0.000
   01/01/2000 14:40:00      0.000     0.000     0.000     0.000
   01/01/2000 14:45:00      0.000     0.000     0.000     0.000
   01/01/2000 14:50:00      0.000     0.000     0.000     0.000
   01/01/2000 14:55:00      0.000     0.000     0.000     0.000
   01/01/2000 15:00:00      0.000     0.000     0.000     0.000
   01/01/2000 15:05:00      0.000     0.000     0.000     0.000
   01/01/2000 15:10:00      0.000     0.000     0.000     0.000
   01/01/2000 15:15:00      0.000     0.000     0.000     0.000
   01/01/2000 15:20:00      0.000     0.000     0.000     0.000
   01/01/2000 15:25:00      0.000     0.000     0.000     0.000
   01/01/2000 15:30:00      0.000     0.000     0.000     0.000
   01/01/2000 15:35:00      0.000     0.000     0.000     0.000
   01/01/2000 15:40:00      0.000     0.000     0.000     0.000
   01/01/2000 15:45:00      0.000     0.000     0.000     0.000
   01/01/2000 15:50:00      0.000     0.000     0.000     0.000
   01/01/2000 15:55:00      0.000     0.000     0.000     0.000
   01/01/2000 16:00:00      0.000     0.000     0.000     0.000
   01/01/2000 16:05:00      0.000     0.000     0.000     0.000
   01/01/2000 16:10:00      0.000     0.000     0.000     0.000
   01/01/2000 16:15:00      0.000     0.000     0.000     0.000
   01/01/2000 16:20:00      0.000     0.000     0.000     0.000
   01/01/2000 16:25:00      0.000     0.000     0.000     0.000
   01/01/2000 16:30:00      0.000     0.000     0.000     0.000
   01/01/2000 16:35:00      0.000     0.000     0.000     0.000
   01/01/2000 16:40:00      0.000     0.000     0.000     0.000
   01/01/2000 16:45:00      0.000     0.000     0.000     0.000
   01/01/2000 16:50:00      0.000     0.000     0.000     0.000
   01/01/2000 16:55:00      0.000     0.000     0.000     0.000
   01/01/2000 17:00:00      0.000     0.000     0.000     0.000
   01/01/2000 17:05:00      0.000     0.000     0.000     0.000
   01/01/2000 17:10:00      0.000     0.000     0.000     0.000
   01/01/2000 17:15:00      0.000     0.000     0.000     0.000
   01/01/2000 17:20:00      0.000     0.000     0.000     0.000
   01/01/2000 17:25:00      0.000     0.000     0.000     0.000
   01/01/2000 17:30:00      0.000     0.000     0.000     0.000
   01/01/2000 17:35:00      0.000     0.000     0.000     0.000
   01/01/2000 17:40:00      0.000     0.000     0.000     0.000
   01/01/2000 17:45:00      0.000     0.000     0.000     0.000
   01/01/2000 17:50:00      0.000     0.000     0.000     0.000
   01/01/2000 17:55:00      0.000     0.000     0.000     0.000
   01/01/2000 18:00:00      0.000     0.000     0.000     0.000
   01/01/2000 18:05:00      0.000     0.000     0.000     0.000
   01/01/2000 18:10:00      0.000     0.000     0.000     0.000
   01/01/2000 18:15:00      0.000     0.000     0.000     0.000
   01/01/2000 18:20:00      0.000     0.000     0.000     0.000
   01/01/2000 18:25:00      0.000     0.000     0.000     0.000
   01/01/2000 18:30:00      0.000     0.000     0.000     0.000
   01/01/2000 18:35:00      0.000     0.000     0.000     0.000
   01/01/2000 18:40:00      0.000     0.000     0.000     0.000
   01/01/2000 18:45:00      0.000     0.000     0.000     0.000
   01/01/2000 18:50:00      0.000     0.000     0.000     0.000
   01/01/2000 18:55:00      0.000     0.000     0.000     0.000
   01/01/2000 19:00:00      0.000     0.000     0.000     0.000
   01/01/2000 19:05:00      0.000     0.000     0.000     0.000
   01/01/2000 19:10:00      0.000     0.000     0.000     0.000
   01/01/2000 19:15:00      0.000     0.000     0.000     0.000
   01/01/2000 19:20:00      0.000     0.000     0.000     0.000
   01/01/2000 19:25:00      0.000     0.000     0.000     0.000
   01/01/2000 19:30:00      0.000     0.000     0.000     0.000
   01/01/2000 19:35:00      0.000     0.000     0.000     0.000
   01/01/2000 19:40:00      0.000     0.000     0.000     0.000
   01/01/2000 19:45:00      0.000     0.000     0.000     0.000
   01/01/2000 19:50:00      0.000     0.000     0.000     0.000
   01/01/2000 19:55:00      0.000     0.000     0.000     0.000
   01/01/2000 20:00:00      0.000     0.000     0.000     0.000
   01/01/2000 20:05:00      0.000     0.000     0.000     0.000
   01/01/2000 20:10:00      0.000     0.000     0.000     0.000
   01/01/2000 20:15:00      0.000     0.000     0.000     0.000
   01/01/2000 20:20:00      0.000     0.000     0.000     0.000
   01/01/2000 20:25:00      0.000     0.000     0.000     0.000
   01/01/2000 20:30:00      0.000     0.000     0.000     0.000
   01/01/2000 20:35:00      0.000     0.000     0.000     0.000
   01/01/2000 20:40:00      0.000     0.000     0.000     0.000
   01/01/2000 20:45:00      0.000     0.000     0.000     0.000
   01/01/2000 20:50:00      0.000     0.000     0.000     0.000
   01/01/2000 20:55:00      0.000     0.000     0.000     0.000
   01/01/2000 21:00:00      0.000     0.000     0.000     0.000
   01/01/2000 21:05:00      0.000     0.000     0.000     0.000
   01/01/2000 21:10:00      0.000     0.000     0.000     0.000
   01/01/2000 21:15:00      0.000     0.000     0.000     0.000
   01/01/2000 21:20:00      0.000     0.000     0.000     0.000
   01/01/2000 21:25:00      0.000     0.000     0.000     0.000
   01/01/2000 21:30:00      0.000     0.000     0.000     0.000
   01/01/2000 21:35:00      0.000     0.000     0.000     0.000
   01/01/2000 21:40:00      0.000     0.000     0.000     0.000
   01/01/2000 21:45:00      0.000     0.000     0.000     0.000
   01/01/2000 21:50:00      0.000     0.000     0.000     0.000
   01/01/2000 21:55:00      0.000     0.000     0.000     0.000
   01/01/2000 22:00:00      0.000     0.000     0.000     0.000
   01/01/2000 22:05:00      0.000     0.000     0.000     0.000
   01/01/2000 22:10:00      0.000     0.000     0.000     0.000
   01/01/2000 22:15:00      0.000     0.000     0.000     0.000
   01/01/2000 22:20:00      0.000     0.000     0.000     0.000
   01/01/2000 22:25:00      0.000     0.000     0.000     0.000
   01/01/2000 22:30:00      0.000     0.000     0.000     0.000
   01/01/2000 22:35:00      0.000     0.000     0.000     0.000
   01/01/2000 22:40:00      0.000     0.000     0.000     0.000
   01/01/2000 22:45:00      0.000     0.000     0.000     0.000
   01/01/2000 22:50:00      0.000     0.000     0.000     0.000
   01/01/2000 22:55:00      0.000     0.000     0.000     0.000
   01/01/2000 23:00:00      0.000     0.000     0.000     0.000
  

  Analysis begun on:  Sun Feb  9 20:52:15 2020
  Analysis ended on:  Sun Feb  9 20:52:15 2020
  Total elapsed time: < 1 sec