
  EPA STORM WATER MANAGEMENT MODEL - VERSION 5.1 (Build 5.1.013)
  --------------------------------------------------------------

  Scenario Run: BASE 
  
  
  *********************
  Rainfall File Summary
  *********************
  Station    First        Last         Recording   Periods    Periods    Periods
  ID         Date         Date         Frequency  w/Precip    Missing    Malfunc.
  -------------------------------------------------------------------------------
  rg_1       01/01/2000   01/02/2000      60 min       241          0          0

  
  *********************************************************
  NOTE: The summary statistics displayed in this report are
  based on results found at every computational time step,  
  not just on results from each reporting time step.
  *********************************************************
  
  ****************
  Analysis Options
  ****************
  Flow Units ............... CMS
  Process Models:
    Rainfall/Runoff ........ YES
    RDII ................... NO
    Snowmelt ............... NO
    Groundwater ............ NO
    Flow Routing ........... YES
    Ponding Allowed ........ NO
    Water Quality .......... NO
  Infiltration Method ...... MODIFIED_GREEN_AMPT
  Flow Routing Method ...... KINWAVE
  Starting Date ............ 01/01/2000 00:00:00
  Ending Date .............. 01/01/2000 22:00:00
  Antecedent Dry Days ...... 5.0
  Report Time Step ......... 00:05:00
  Wet Time Step ............ 00:15:00
  Dry Time Step ............ 01:00:00
  Routing Time Step ........ 60.00 sec
  
  
  **************************        Volume         Depth
  Runoff Quantity Continuity     hectare-m            mm
  **************************     ---------       -------
  Total Precipitation ......         3.936         9.648
  Evaporation Loss .........         0.000         0.000
  Infiltration Loss ........         3.129         7.670
  Surface Runoff ...........         0.149         0.366
  Final Storage ............         0.658         1.612
  Continuity Error (%) .....        -0.011
  
  
  **************************        Volume        Volume
  Flow Routing Continuity        hectare-m      10^6 ltr
  **************************     ---------     ---------
  Dry Weather Inflow .......         0.000         0.000
  Wet Weather Inflow .......         0.149         1.493
  Groundwater Inflow .......         0.000         0.000
  RDII Inflow ..............         0.000         0.000
  External Inflow ..........         0.000         0.000
  External Outflow .........         0.000         0.000
  Flooding Loss ............         0.147         1.473
  Evaporation Loss .........         0.000         0.000
  Exfiltration Loss ........         0.000         0.000
  Initial Stored Volume ....         0.000         0.000
  Final Stored Volume ......         0.002         0.016
  Continuity Error (%) .....         0.307
  
  
  ********************************
  Highest Flow Instability Indexes
  ********************************
  All links are stable.
  
  
  *************************
  Routing Time Step Summary
  *************************
  Minimum Time Step           :    59.00 sec
  Average Time Step           :    60.00 sec
  Maximum Time Step           :    60.00 sec
  Percent in Steady State     :     0.00
  Average Iterations per Step :     1.06
  Percent Not Converging      :     0.00
  
  
  ***************************
  Subcatchment Runoff Summary
  ***************************
  
  ------------------------------------------------------------------------------------------------------------------------------
                            Total      Total      Total      Total     Imperv       Perv      Total       Total     Peak  Runoff
                           Precip      Runon       Evap      Infil     Runoff     Runoff     Runoff      Runoff   Runoff   Coeff
  Subcatchment                 mm         mm         mm         mm         mm         mm         mm    10^6 ltr      CMS
  ------------------------------------------------------------------------------------------------------------------------------
  S1                         9.65       0.00       0.00       0.00       9.60       0.00       9.60        0.38     0.14   0.995
  S2                         9.65       0.00       0.00       7.82       0.18       0.01       0.19        0.75     0.07   0.019
  S3                         9.65       0.00       0.00       0.00       9.50       0.00       9.00        0.36     0.10   0.933
  

  ***********************
  LID Performance Summary
  ***********************

  --------------------------------------------------------------------------------------------------------------------
                                         Total      Evap     Infil   Surface    Drain    Initial     Final  Continuity
                                        Inflow      Loss      Loss   Outflow   Outflow   Storage   Storage       Error
  Subcatchment      LID Control             mm        mm        mm        mm        mm        mm        mm           %
  --------------------------------------------------------------------------------------------------------------------
  S3                rb                 5708.61      0.00      0.00   4708.61      0.00      0.00   1000.00       -0.00
  
  ******************
  Node Depth Summary
  ******************
  
  ---------------------------------------------------------------------------------
                                 Average  Maximum  Maximum  Time of Max    Reported
                                   Depth    Depth      HGL   Occurrence   Max Depth
  Node                 Type       Meters   Meters   Meters  days hr:min      Meters
  ---------------------------------------------------------------------------------
  J3                   JUNCTION     0.02     0.12    93.12     0  13:00        0.12
  J1                   JUNCTION     0.01     0.07    96.07     0  12:54        0.06
  J4                   JUNCTION     0.08     0.34    88.34     0  13:03        0.33
  J2                   JUNCTION     0.08     0.35    90.35     0  12:55        0.35
  OUT1                 OUTFALL      0.00     0.00    85.00     0  00:00        0.00
  STO1                 STORAGE      0.00     0.00    86.00     0  00:00        0.00
  
  
  *******************
  Node Inflow Summary
  *******************
  
  -------------------------------------------------------------------------------------------------
                                  Maximum  Maximum                  Lateral       Total        Flow
                                  Lateral    Total  Time of Max      Inflow      Inflow     Balance
                                   Inflow   Inflow   Occurrence      Volume      Volume       Error
  Node                 Type           CMS      CMS  days hr:min    10^6 ltr    10^6 ltr     Percent
  -------------------------------------------------------------------------------------------------
  J3                   JUNCTION     0.102    0.102     0  13:00        0.36        0.36       0.000
  J1                   JUNCTION     0.142    0.142     0  12:54       0.384       0.384       0.000
  J4                   JUNCTION     0.000    0.279     0  13:02           0        1.48       0.000
  J2                   JUNCTION     0.067    0.193     0  12:55       0.749        1.13       0.000
  OUT1                 OUTFALL      0.000    0.000     0  00:00           0           0       0.000 ltr
  STO1                 STORAGE      0.000    0.272     0  13:05           0        1.47       0.017
  
  
  *********************
  Node Flooding Summary
  *********************
  
  Flooding refers to all water that overflows a node, whether it ponds or not.
  --------------------------------------------------------------------------
                                                             Total   Maximum
                                 Maximum   Time of Max       Flood    Ponded
                        Hours       Rate    Occurrence      Volume    Volume
  Node                 Flooded       CMS   days hr:min    10^6 ltr   1000 m3
  --------------------------------------------------------------------------
  STO1                   19.98     0.272      0  13:05       1.473     0.000
  
  
  **********************
  Storage Volume Summary
  **********************
  
  --------------------------------------------------------------------------------------------------
                         Average     Avg  Evap Exfil       Maximum     Max    Time of Max    Maximum
                          Volume    Pcnt  Pcnt  Pcnt        Volume    Pcnt     Occurrence    Outflow
  Storage Unit           1000 m3    Full  Loss  Loss       1000 m3    Full    days hr:min        CMS
  --------------------------------------------------------------------------------------------------
  STO1                     0.000       0     0     0         0.000       0       0  00:00      0.000
  
  
  ***********************
  Outfall Loading Summary
  ***********************
  
  -----------------------------------------------------------
                         Flow       Avg       Max       Total
                         Freq      Flow      Flow      Volume
  Outfall Node           Pcnt       CMS       CMS    10^6 ltr
  -----------------------------------------------------------
  OUT1                   0.00     0.000     0.000       0.000
  -----------------------------------------------------------
  System                 0.00     0.000     0.000       0.000
  
  
  ********************
  Link Flow Summary
  ********************
  
  -----------------------------------------------------------------------------
                                 Maximum  Time of Max   Maximum    Max/    Max/
                                  |Flow|   Occurrence   |Veloc|    Full    Full
  Link                 Type          CMS  days hr:min     m/sec    Flow   Depth
  -----------------------------------------------------------------------------
  C3                   CONDUIT     0.101     0  13:01      1.67    0.01    0.08
  C4                   CONDUIT     0.272     0  13:05      2.06    0.02    0.09
  C2                   CONDUIT     0.180     0  13:03      0.87    0.24    0.33
  C1                   CONDUIT     0.140     0  12:55      6.44    0.01    0.06
  C5                   CONDUIT     0.000     0  00:00      0.00    0.00    0.00
  
  
  *************************
  Conduit Surcharge Summary
  *************************
  
  No conduits were surcharged.
  
  
  ********************
  Subcatchment Results
  ********************
  
  <<< Subcatchment S1 >>>
  ---------------------------------------------------
  Date        Time        Precip.    Losses    Runoff
                            mm/hr     mm/hr       CMS
  ---------------------------------------------------
   01/01/2000 00:05:00      0.000     0.000    0.0000
   01/01/2000 00:10:00      0.000     0.000    0.0000
   01/01/2000 00:15:00      0.000     0.000    0.0000
   01/01/2000 00:20:00      0.000     0.000    0.0000
   01/01/2000 00:25:00      0.000     0.000    0.0000
   01/01/2000 00:30:00      0.000     0.000    0.0000
   01/01/2000 00:35:00      0.000     0.000    0.0000
   01/01/2000 00:40:00      0.000     0.000    0.0000
   01/01/2000 00:45:00      0.000     0.000    0.0000
   01/01/2000 00:50:00      0.000     0.000    0.0000
   01/01/2000 00:55:00      0.000     0.000    0.0000
   01/01/2000 01:00:00      0.101     0.000    0.0000
   01/01/2000 01:05:00      0.101     0.000    0.0000
   01/01/2000 01:10:00      0.101     0.000    0.0000
   01/01/2000 01:15:00      0.103     0.000    0.0000
   01/01/2000 01:20:00      0.103     0.000    0.0000
   01/01/2000 01:25:00      0.105     0.000    0.0000
   01/01/2000 01:30:00      0.105     0.000    0.0000
   01/01/2000 01:35:00      0.105     0.000    0.0003
   01/01/2000 01:40:00      0.107     0.000    0.0004
   01/01/2000 01:45:00      0.107     0.000    0.0006
   01/01/2000 01:50:00      0.109     0.000    0.0007
   01/01/2000 01:55:00      0.109     0.000    0.0008
   01/01/2000 02:00:00      0.111     0.000    0.0009
   01/01/2000 02:05:00      0.111     0.000    0.0009
   01/01/2000 02:10:00      0.111     0.000    0.0010
   01/01/2000 02:15:00      0.113     0.000    0.0011
   01/01/2000 02:20:00      0.113     0.000    0.0011
   01/01/2000 02:25:00      0.115     0.000    0.0011
   01/01/2000 02:30:00      0.115     0.000    0.0012
   01/01/2000 02:35:00      0.115     0.000    0.0012
   01/01/2000 02:40:00      0.117     0.000    0.0012
   01/01/2000 02:45:00      0.117     0.000    0.0012
   01/01/2000 02:50:00      0.119     0.000    0.0013
   01/01/2000 02:55:00      0.119     0.000    0.0013
   01/01/2000 03:00:00      0.121     0.000    0.0013
   01/01/2000 03:05:00      0.121     0.000    0.0013
   01/01/2000 03:10:00      0.121     0.000    0.0013
   01/01/2000 03:15:00      0.123     0.000    0.0013
   01/01/2000 03:20:00      0.123     0.000    0.0013
   01/01/2000 03:25:00      0.125     0.000    0.0013
   01/01/2000 03:30:00      0.125     0.000    0.0014
   01/01/2000 03:35:00      0.125     0.000    0.0014
   01/01/2000 03:40:00      0.127     0.000    0.0014
   01/01/2000 03:45:00      0.127     0.000    0.0014
   01/01/2000 03:50:00      0.129     0.000    0.0014
   01/01/2000 03:55:00      0.129     0.000    0.0014
   01/01/2000 04:00:00      0.131     0.000    0.0014
   01/01/2000 04:05:00      0.131     0.000    0.0014
   01/01/2000 04:10:00      0.131     0.000    0.0014
   01/01/2000 04:15:00      0.133     0.000    0.0014
   01/01/2000 04:20:00      0.133     0.000    0.0014
   01/01/2000 04:25:00      0.135     0.000    0.0015
   01/01/2000 04:30:00      0.135     0.000    0.0015
   01/01/2000 04:35:00      0.135     0.000    0.0015
   01/01/2000 04:40:00      0.137     0.000    0.0015
   01/01/2000 04:45:00      0.137     0.000    0.0015
   01/01/2000 04:50:00      0.139     0.000    0.0015
   01/01/2000 04:55:00      0.139     0.000    0.0015
   01/01/2000 05:00:00      0.141     0.000    0.0015
   01/01/2000 05:05:00      0.141     0.000    0.0015
   01/01/2000 05:10:00      0.143     0.000    0.0015
   01/01/2000 05:15:00      0.145     0.000    0.0016
   01/01/2000 05:20:00      0.147     0.000    0.0016
   01/01/2000 05:25:00      0.149     0.000    0.0016
   01/01/2000 05:30:00      0.151     0.000    0.0016
   01/01/2000 05:35:00      0.153     0.000    0.0016
   01/01/2000 05:40:00      0.153     0.000    0.0016
   01/01/2000 05:45:00      0.155     0.000    0.0017
   01/01/2000 05:50:00      0.157     0.000    0.0017
   01/01/2000 05:55:00      0.159     0.000    0.0017
   01/01/2000 06:00:00      0.161     0.000    0.0017
   01/01/2000 06:05:00      0.163     0.000    0.0017
   01/01/2000 06:10:00      0.163     0.000    0.0018
   01/01/2000 06:15:00      0.165     0.000    0.0018
   01/01/2000 06:20:00      0.167     0.000    0.0018
   01/01/2000 06:25:00      0.169     0.000    0.0018
   01/01/2000 06:30:00      0.171     0.000    0.0018
   01/01/2000 06:35:00      0.173     0.000    0.0019
   01/01/2000 06:40:00      0.173     0.000    0.0019
   01/01/2000 06:45:00      0.175     0.000    0.0019
   01/01/2000 06:50:00      0.177     0.000    0.0019
   01/01/2000 06:55:00      0.179     0.000    0.0019
   01/01/2000 07:00:00      0.181     0.000    0.0019
   01/01/2000 07:05:00      0.183     0.000    0.0020
   01/01/2000 07:10:00      0.183     0.000    0.0020
   01/01/2000 07:15:00      0.185     0.000    0.0020
   01/01/2000 07:20:00      0.187     0.000    0.0020
   01/01/2000 07:25:00      0.189     0.000    0.0020
   01/01/2000 07:30:00      0.191     0.000    0.0021
   01/01/2000 07:35:00      0.193     0.000    0.0021
   01/01/2000 07:40:00      0.193     0.000    0.0021
   01/01/2000 07:45:00      0.195     0.000    0.0021
   01/01/2000 07:50:00      0.197     0.000    0.0021
   01/01/2000 07:55:00      0.199     0.000    0.0022
   01/01/2000 08:00:00      0.201     0.000    0.0022
   01/01/2000 08:05:00      0.203     0.000    0.0022
   01/01/2000 08:10:00      0.203     0.000    0.0022
   01/01/2000 08:15:00      0.205     0.000    0.0022
   01/01/2000 08:20:00      0.207     0.000    0.0022
   01/01/2000 08:25:00      0.209     0.000    0.0023
   01/01/2000 08:30:00      0.211     0.000    0.0023
   01/01/2000 08:35:00      0.213     0.000    0.0023
   01/01/2000 08:40:00      0.213     0.000    0.0023
   01/01/2000 08:45:00      0.215     0.000    0.0023
   01/01/2000 08:50:00      0.217     0.000    0.0024
   01/01/2000 08:55:00      0.219     0.000    0.0024
   01/01/2000 09:00:00      0.225     0.000    0.0024
   01/01/2000 09:05:00      0.235     0.000    0.0024
   01/01/2000 09:10:00      0.235     0.000    0.0025
   01/01/2000 09:15:00      0.245     0.000    0.0025
   01/01/2000 09:20:00      0.255     0.000    0.0026
   01/01/2000 09:25:00      0.265     0.000    0.0027
   01/01/2000 09:30:00      0.275     0.000    0.0028
   01/01/2000 09:35:00      0.285     0.000    0.0029
   01/01/2000 09:40:00      0.285     0.000    0.0030
   01/01/2000 09:45:00      0.295     0.000    0.0031
   01/01/2000 09:50:00      0.305     0.000    0.0031
   01/01/2000 09:55:00      0.315     0.000    0.0032
   01/01/2000 10:00:00      0.320     0.000    0.0033
   01/01/2000 10:05:00      0.320     0.000    0.0034
   01/01/2000 10:10:00      0.320     0.000    0.0035
   01/01/2000 10:15:00      0.320     0.000    0.0035
   01/01/2000 10:20:00      0.320     0.000    0.0035
   01/01/2000 10:25:00      0.320     0.000    0.0035
   01/01/2000 10:30:00      0.328     0.000    0.0035
   01/01/2000 10:35:00      0.344     0.000    0.0036
   01/01/2000 10:40:00      0.344     0.000    0.0037
   01/01/2000 10:45:00      0.360     0.000    0.0038
   01/01/2000 10:50:00      0.376     0.000    0.0039
   01/01/2000 10:55:00      0.392     0.000    0.0040
   01/01/2000 11:00:00      0.412     0.000    0.0041
   01/01/2000 11:05:00      0.436     0.000    0.0043
   01/01/2000 11:10:00      0.436     0.000    0.0045
   01/01/2000 11:15:00      0.460     0.000    0.0047
   01/01/2000 11:20:00      0.484     0.000    0.0049
   01/01/2000 11:25:00      0.508     0.000    0.0051
   01/01/2000 11:30:00      0.540     0.000    0.0054
   01/01/2000 11:35:00      0.580     0.000    0.0056
   01/01/2000 11:40:00      0.580     0.000    0.0059
   01/01/2000 11:45:00      0.620     0.000    0.0063
   01/01/2000 11:50:00      0.660     0.000    0.0066
   01/01/2000 11:55:00      0.700     0.000    0.0070
   01/01/2000 12:00:00      0.768     0.000    0.0074
   01/01/2000 12:05:00      0.864     0.000    0.0079
   01/01/2000 12:10:00      0.864     0.000    0.0086
   01/01/2000 12:15:00      0.960     0.000    0.0094
   01/01/2000 12:20:00      1.056     0.000    0.0103
   01/01/2000 12:25:00      1.152     0.000    0.0112
   01/01/2000 12:30:00      2.384     0.000    0.0133
   01/01/2000 12:35:00      4.752     0.000    0.0206
   01/01/2000 12:40:00      4.752     0.000    0.0394
   01/01/2000 12:45:00      7.643     0.000    0.0651
   01/01/2000 12:50:00     13.707     0.000    0.1089
   01/01/2000 12:55:00      9.514     0.000    0.1314
   01/01/2000 13:00:00      1.896     0.000    0.0988
   01/01/2000 13:05:00      1.668     0.000    0.0401
   01/01/2000 13:10:00      1.668     0.000    0.0277
   01/01/2000 13:15:00      1.440     0.000    0.0213
   01/01/2000 13:20:00      1.212     0.000    0.0176
   01/01/2000 13:25:00      0.984     0.000    0.0149
   01/01/2000 13:30:00      0.844     0.000    0.0127
   01/01/2000 13:35:00      0.792     0.000    0.0110
   01/01/2000 13:40:00      0.792     0.000    0.0100
   01/01/2000 13:45:00      0.740     0.000    0.0093
   01/01/2000 13:50:00      0.688     0.000    0.0087
   01/01/2000 13:55:00      0.636     0.000    0.0081
   01/01/2000 14:00:00      0.596     0.000    0.0076
   01/01/2000 14:05:00      0.568     0.000    0.0072
   01/01/2000 14:10:00      0.568     0.000    0.0068
   01/01/2000 14:15:00      0.540     0.000    0.0065
   01/01/2000 14:20:00      0.512     0.000    0.0062
   01/01/2000 14:25:00      0.484     0.000    0.0060
   01/01/2000 14:30:00      0.460     0.000    0.0057
   01/01/2000 14:35:00      0.440     0.000    0.0055
   01/01/2000 14:40:00      0.440     0.000    0.0053
   01/01/2000 14:45:00      0.420     0.000    0.0051
   01/01/2000 14:50:00      0.400     0.000    0.0049
   01/01/2000 14:55:00      0.380     0.000    0.0047
   01/01/2000 15:00:00      0.367     0.000    0.0045
   01/01/2000 15:05:00      0.359     0.000    0.0043
   01/01/2000 15:10:00      0.359     0.000    0.0042
   01/01/2000 15:15:00      0.353     0.000    0.0041
   01/01/2000 15:20:00      0.345     0.000    0.0040
   01/01/2000 15:25:00      0.339     0.000    0.0040
   01/01/2000 15:30:00      0.331     0.000    0.0039
   01/01/2000 15:35:00      0.325     0.000    0.0038
   01/01/2000 15:40:00      0.325     0.000    0.0037
   01/01/2000 15:45:00      0.317     0.000    0.0037
   01/01/2000 15:50:00      0.311     0.000    0.0036
   01/01/2000 15:55:00      0.303     0.000    0.0035
   01/01/2000 16:00:00      0.297     0.000    0.0035
   01/01/2000 16:05:00      0.289     0.000    0.0034
   01/01/2000 16:10:00      0.289     0.000    0.0034
   01/01/2000 16:15:00      0.283     0.000    0.0033
   01/01/2000 16:20:00      0.275     0.000    0.0032
   01/01/2000 16:25:00      0.269     0.000    0.0032
   01/01/2000 16:30:00      0.261     0.000    0.0031
   01/01/2000 16:35:00      0.255     0.000    0.0030
   01/01/2000 16:40:00      0.255     0.000    0.0030
   01/01/2000 16:45:00      0.247     0.000    0.0029
   01/01/2000 16:50:00      0.241     0.000    0.0028
   01/01/2000 16:55:00      0.233     0.000    0.0028
   01/01/2000 17:00:00      0.229     0.000    0.0027
   01/01/2000 17:05:00      0.226     0.000    0.0027
   01/01/2000 17:10:00      0.226     0.000    0.0026
   01/01/2000 17:15:00      0.224     0.000    0.0026
   01/01/2000 17:20:00      0.221     0.000    0.0025
   01/01/2000 17:25:00      0.219     0.000    0.0025
   01/01/2000 17:30:00      0.216     0.000    0.0025
   01/01/2000 17:35:00      0.214     0.000    0.0025
   01/01/2000 17:40:00      0.214     0.000    0.0024
   01/01/2000 17:45:00      0.211     0.000    0.0024
   01/01/2000 17:50:00      0.209     0.000    0.0024
   01/01/2000 17:55:00      0.206     0.000    0.0024
   01/01/2000 18:00:00      0.204     0.000    0.0023
   01/01/2000 18:05:00      0.201     0.000    0.0023
   01/01/2000 18:10:00      0.201     0.000    0.0023
   01/01/2000 18:15:00      0.199     0.000    0.0023
   01/01/2000 18:20:00      0.196     0.000    0.0022
   01/01/2000 18:25:00      0.194     0.000    0.0022
   01/01/2000 18:30:00      0.191     0.000    0.0022
   01/01/2000 18:35:00      0.189     0.000    0.0022
   01/01/2000 18:40:00      0.189     0.000    0.0022
   01/01/2000 18:45:00      0.186     0.000    0.0021
   01/01/2000 18:50:00      0.184     0.000    0.0021
   01/01/2000 18:55:00      0.181     0.000    0.0021
   01/01/2000 19:00:00      0.179     0.000    0.0021
   01/01/2000 19:05:00      0.176     0.000    0.0020
   01/01/2000 19:10:00      0.176     0.000    0.0020
   01/01/2000 19:15:00      0.174     0.000    0.0020
   01/01/2000 19:20:00      0.171     0.000    0.0020
   01/01/2000 19:25:00      0.169     0.000    0.0020
   01/01/2000 19:30:00      0.166     0.000    0.0019
   01/01/2000 19:35:00      0.164     0.000    0.0019
   01/01/2000 19:40:00      0.164     0.000    0.0019
   01/01/2000 19:45:00      0.161     0.000    0.0019
   01/01/2000 19:50:00      0.159     0.000    0.0018
   01/01/2000 19:55:00      0.156     0.000    0.0018
   01/01/2000 20:00:00      0.154     0.000    0.0018
   01/01/2000 20:05:00      0.154     0.000    0.0018
   01/01/2000 20:10:00      0.151     0.000    0.0017
   01/01/2000 20:15:00      0.149     0.000    0.0017
   01/01/2000 20:20:00      0.146     0.000    0.0017
   01/01/2000 20:25:00      0.144     0.000    0.0017
   01/01/2000 20:30:00      0.141     0.000    0.0017
   01/01/2000 20:35:00      0.141     0.000    0.0016
   01/01/2000 20:40:00      0.139     0.000    0.0016
   01/01/2000 20:45:00      0.136     0.000    0.0016
   01/01/2000 20:50:00      0.134     0.000    0.0016
   01/01/2000 20:55:00      0.131     0.000    0.0015
   01/01/2000 21:00:00      0.130     0.000    0.0015
   01/01/2000 21:05:00      0.130     0.000    0.0015
   01/01/2000 21:10:00      0.129     0.000    0.0015
   01/01/2000 21:15:00      0.129     0.000    0.0015
   01/01/2000 21:20:00      0.128     0.000    0.0015
   01/01/2000 21:25:00      0.128     0.000    0.0015
   01/01/2000 21:30:00      0.127     0.000    0.0014
   01/01/2000 21:35:00      0.127     0.000    0.0014
   01/01/2000 21:40:00      0.127     0.000    0.0014
   01/01/2000 21:45:00      0.126     0.000    0.0014
   01/01/2000 21:50:00      0.126     0.000    0.0014
   01/01/2000 21:55:00      0.125     0.000    0.0014
  
  
  <<< Subcatchment S2 >>>
  ---------------------------------------------------
  Date        Time        Precip.    Losses    Runoff
                            mm/hr     mm/hr       CMS
  ---------------------------------------------------
   01/01/2000 00:05:00      0.000     0.000    0.0000
   01/01/2000 00:10:00      0.000     0.000    0.0000
   01/01/2000 00:15:00      0.000     0.000    0.0000
   01/01/2000 00:20:00      0.000     0.000    0.0000
   01/01/2000 00:25:00      0.000     0.000    0.0000
   01/01/2000 00:30:00      0.000     0.000    0.0000
   01/01/2000 00:35:00      0.000     0.000    0.0000
   01/01/2000 00:40:00      0.000     0.000    0.0000
   01/01/2000 00:45:00      0.000     0.000    0.0000
   01/01/2000 00:50:00      0.000     0.000    0.0000
   01/01/2000 00:55:00      0.000     0.000    0.0000
   01/01/2000 01:00:00      0.101     0.000    0.0000
   01/01/2000 01:05:00      0.101     0.099    0.0000
   01/01/2000 01:10:00      0.101     0.099    0.0000
   01/01/2000 01:15:00      0.103     0.101    0.0000
   01/01/2000 01:20:00      0.103     0.101    0.0000
   01/01/2000 01:25:00      0.105     0.103    0.0000
   01/01/2000 01:30:00      0.105     0.103    0.0000
   01/01/2000 01:35:00      0.105     0.103    0.0000
   01/01/2000 01:40:00      0.107     0.105    0.0000
   01/01/2000 01:45:00      0.107     0.105    0.0000
   01/01/2000 01:50:00      0.109     0.107    0.0000
   01/01/2000 01:55:00      0.109     0.107    0.0000
   01/01/2000 02:00:00      0.111     0.109    0.0000
   01/01/2000 02:05:00      0.111     0.109    0.0000
   01/01/2000 02:10:00      0.111     0.109    0.0000
   01/01/2000 02:15:00      0.113     0.111    0.0000
   01/01/2000 02:20:00      0.113     0.111    0.0000
   01/01/2000 02:25:00      0.115     0.113    0.0000
   01/01/2000 02:30:00      0.115     0.113    0.0000
   01/01/2000 02:35:00      0.115     0.113    0.0000
   01/01/2000 02:40:00      0.117     0.115    0.0000
   01/01/2000 02:45:00      0.117     0.115    0.0000
   01/01/2000 02:50:00      0.119     0.117    0.0000
   01/01/2000 02:55:00      0.119     0.117    0.0000
   01/01/2000 03:00:00      0.121     0.117    0.0000
   01/01/2000 03:05:00      0.121     0.119    0.0000
   01/01/2000 03:10:00      0.121     0.119    0.0000
   01/01/2000 03:15:00      0.123     0.120    0.0000
   01/01/2000 03:20:00      0.123     0.120    0.0000
   01/01/2000 03:25:00      0.125     0.122    0.0000
   01/01/2000 03:30:00      0.125     0.122    0.0000
   01/01/2000 03:35:00      0.125     0.122    0.0000
   01/01/2000 03:40:00      0.127     0.124    0.0000
   01/01/2000 03:45:00      0.127     0.124    0.0000
   01/01/2000 03:50:00      0.129     0.126    0.0000
   01/01/2000 03:55:00      0.129     0.126    0.0000
   01/01/2000 04:00:00      0.131     0.126    0.0000
   01/01/2000 04:05:00      0.131     0.128    0.0000
   01/01/2000 04:10:00      0.131     0.128    0.0000
   01/01/2000 04:15:00      0.133     0.130    0.0000
   01/01/2000 04:20:00      0.133     0.130    0.0000
   01/01/2000 04:25:00      0.135     0.132    0.0000
   01/01/2000 04:30:00      0.135     0.132    0.0000
   01/01/2000 04:35:00      0.135     0.132    0.0000
   01/01/2000 04:40:00      0.137     0.134    0.0000
   01/01/2000 04:45:00      0.137     0.134    0.0000
   01/01/2000 04:50:00      0.139     0.136    0.0000
   01/01/2000 04:55:00      0.139     0.136    0.0000
   01/01/2000 05:00:00      0.141     0.136    0.0000
   01/01/2000 05:05:00      0.141     0.138    0.0000
   01/01/2000 05:10:00      0.143     0.140    0.0000
   01/01/2000 05:15:00      0.145     0.142    0.0000
   01/01/2000 05:20:00      0.147     0.144    0.0000
   01/01/2000 05:25:00      0.149     0.146    0.0000
   01/01/2000 05:30:00      0.151     0.146    0.0000
   01/01/2000 05:35:00      0.153     0.148    0.0000
   01/01/2000 05:40:00      0.153     0.150    0.0000
   01/01/2000 05:45:00      0.155     0.152    0.0000
   01/01/2000 05:50:00      0.157     0.154    0.0000
   01/01/2000 05:55:00      0.159     0.156    0.0000
   01/01/2000 06:00:00      0.161     0.158    0.0000
   01/01/2000 06:05:00      0.163     0.158    0.0000
   01/01/2000 06:10:00      0.163     0.160    0.0000
   01/01/2000 06:15:00      0.165     0.162    0.0000
   01/01/2000 06:20:00      0.167     0.164    0.0000
   01/01/2000 06:25:00      0.169     0.166    0.0000
   01/01/2000 06:30:00      0.171     0.167    0.0000
   01/01/2000 06:35:00      0.173     0.167    0.0000
   01/01/2000 06:40:00      0.173     0.169    0.0000
   01/01/2000 06:45:00      0.175     0.171    0.0000
   01/01/2000 06:50:00      0.177     0.173    0.0000
   01/01/2000 06:55:00      0.179     0.175    0.0000
   01/01/2000 07:00:00      0.181     0.177    0.0000
   01/01/2000 07:05:00      0.183     0.177    0.0000
   01/01/2000 07:10:00      0.183     0.179    0.0000
   01/01/2000 07:15:00      0.185     0.181    0.0000
   01/01/2000 07:20:00      0.187     0.183    0.0000
   01/01/2000 07:25:00      0.189     0.185    0.0000
   01/01/2000 07:30:00      0.191     0.187    0.0000
   01/01/2000 07:35:00      0.193     0.187    0.0000
   01/01/2000 07:40:00      0.193     0.189    0.0000
   01/01/2000 07:45:00      0.195     0.191    0.0000
   01/01/2000 07:50:00      0.197     0.193    0.0000
   01/01/2000 07:55:00      0.199     0.195    0.0000
   01/01/2000 08:00:00      0.201     0.197    0.0000
   01/01/2000 08:05:00      0.203     0.197    0.0000
   01/01/2000 08:10:00      0.203     0.199    0.0000
   01/01/2000 08:15:00      0.205     0.201    0.0000
   01/01/2000 08:20:00      0.207     0.203    0.0000
   01/01/2000 08:25:00      0.209     0.205    0.0000
   01/01/2000 08:30:00      0.211     0.207    0.0000
   01/01/2000 08:35:00      0.213     0.207    0.0000
   01/01/2000 08:40:00      0.213     0.209    0.0000
   01/01/2000 08:45:00      0.215     0.211    0.0000
   01/01/2000 08:50:00      0.217     0.213    0.0000
   01/01/2000 08:55:00      0.219     0.215    0.0000
   01/01/2000 09:00:00      0.225     0.220    0.0000
   01/01/2000 09:05:00      0.235     0.220    0.0000
   01/01/2000 09:10:00      0.235     0.230    0.0000
   01/01/2000 09:15:00      0.245     0.240    0.0000
   01/01/2000 09:20:00      0.255     0.250    0.0000
   01/01/2000 09:25:00      0.265     0.260    0.0000
   01/01/2000 09:30:00      0.275     0.269    0.0000
   01/01/2000 09:35:00      0.285     0.269    0.0000
   01/01/2000 09:40:00      0.285     0.279    0.0000
   01/01/2000 09:45:00      0.295     0.289    0.0000
   01/01/2000 09:50:00      0.305     0.299    0.0000
   01/01/2000 09:55:00      0.315     0.309    0.0000
   01/01/2000 10:00:00      0.320     0.313    0.0000
   01/01/2000 10:05:00      0.320     0.313    0.0000
   01/01/2000 10:10:00      0.320     0.313    0.0000
   01/01/2000 10:15:00      0.320     0.313    0.0000
   01/01/2000 10:20:00      0.320     0.313    0.0000
   01/01/2000 10:25:00      0.320     0.313    0.0000
   01/01/2000 10:30:00      0.328     0.321    0.0000
   01/01/2000 10:35:00      0.344     0.321    0.0000
   01/01/2000 10:40:00      0.344     0.337    0.0000
   01/01/2000 10:45:00      0.360     0.353    0.0000
   01/01/2000 10:50:00      0.376     0.368    0.0000
   01/01/2000 10:55:00      0.392     0.384    0.0000
   01/01/2000 11:00:00      0.412     0.404    0.0000
   01/01/2000 11:05:00      0.436     0.404    0.0000
   01/01/2000 11:10:00      0.436     0.427    0.0000
   01/01/2000 11:15:00      0.460     0.451    0.0000
   01/01/2000 11:20:00      0.484     0.474    0.0000
   01/01/2000 11:25:00      0.508     0.498    0.0000
   01/01/2000 11:30:00      0.540     0.529    0.0000
   01/01/2000 11:35:00      0.580     0.529    0.0000
   01/01/2000 11:40:00      0.580     0.549    0.0000
   01/01/2000 11:45:00      0.620     0.545    0.0000
   01/01/2000 11:50:00      0.660     0.541    0.0000
   01/01/2000 11:55:00      0.700     0.538    0.0000
   01/01/2000 12:00:00      0.768     0.536    0.0000
   01/01/2000 12:05:00      0.864     0.536    0.0000
   01/01/2000 12:10:00      0.864     0.534    0.0000
   01/01/2000 12:15:00      0.960     0.533    0.0000
   01/01/2000 12:20:00      1.056     0.532    0.0000
   01/01/2000 12:25:00      1.152     0.532    0.0000
   01/01/2000 12:30:00      2.384     0.533    0.0000
   01/01/2000 12:35:00      4.752     0.533    0.0000
   01/01/2000 12:40:00      4.752     0.541    0.0000
   01/01/2000 12:45:00      7.643     0.563    0.0000
   01/01/2000 12:50:00     13.707     0.600    0.0393
   01/01/2000 12:55:00      9.514     0.670    0.0560
   01/01/2000 13:00:00      1.896     0.712    0.0662
   01/01/2000 13:05:00      1.668     0.712    0.0646
   01/01/2000 13:10:00      1.668     0.710    0.0628
   01/01/2000 13:15:00      1.440     0.707    0.0608
   01/01/2000 13:20:00      1.212     0.704    0.0586
   01/01/2000 13:25:00      0.984     0.699    0.0563
   01/01/2000 13:30:00      0.844     0.693    0.0539
   01/01/2000 13:35:00      0.792     0.693    0.0516
   01/01/2000 13:40:00      0.792     0.687    0.0494
   01/01/2000 13:45:00      0.740     0.681    0.0473
   01/01/2000 13:50:00      0.688     0.676    0.0453
   01/01/2000 13:55:00      0.636     0.670    0.0434
   01/01/2000 14:00:00      0.596     0.664    0.0416
   01/01/2000 14:05:00      0.568     0.664    0.0399
   01/01/2000 14:10:00      0.568     0.659    0.0383
   01/01/2000 14:15:00      0.540     0.653    0.0368
   01/01/2000 14:20:00      0.512     0.648    0.0354
   01/01/2000 14:25:00      0.484     0.643    0.0340
   01/01/2000 14:30:00      0.460     0.638    0.0328
   01/01/2000 14:35:00      0.440     0.638    0.0315
   01/01/2000 14:40:00      0.440     0.633    0.0304
   01/01/2000 14:45:00      0.420     0.628    0.0293
   01/01/2000 14:50:00      0.400     0.624    0.0283
   01/01/2000 14:55:00      0.380     0.619    0.0000
   01/01/2000 15:00:00      0.367     0.615    0.0000
   01/01/2000 15:05:00      0.359     0.615    0.0000
   01/01/2000 15:10:00      0.359     0.610    0.0000
   01/01/2000 15:15:00      0.353     0.606    0.0000
   01/01/2000 15:20:00      0.345     0.602    0.0000
   01/01/2000 15:25:00      0.339     0.598    0.0000
   01/01/2000 15:30:00      0.331     0.594    0.0000
   01/01/2000 15:35:00      0.325     0.594    0.0000
   01/01/2000 15:40:00      0.325     0.591    0.0000
   01/01/2000 15:45:00      0.317     0.587    0.0000
   01/01/2000 15:50:00      0.311     0.584    0.0000
   01/01/2000 15:55:00      0.303     0.580    0.0000
   01/01/2000 16:00:00      0.297     0.577    0.0000
   01/01/2000 16:05:00      0.289     0.577    0.0000
   01/01/2000 16:10:00      0.289     0.574    0.0000
   01/01/2000 16:15:00      0.283     0.570    0.0000
   01/01/2000 16:20:00      0.275     0.567    0.0000
   01/01/2000 16:25:00      0.269     0.564    0.0000
   01/01/2000 16:30:00      0.261     0.561    0.0000
   01/01/2000 16:35:00      0.255     0.561    0.0000
   01/01/2000 16:40:00      0.255     0.558    0.0000
   01/01/2000 16:45:00      0.247     0.556    0.0000
   01/01/2000 16:50:00      0.241     0.553    0.0000
   01/01/2000 16:55:00      0.233     0.550    0.0000
   01/01/2000 17:00:00      0.229     0.547    0.0000
   01/01/2000 17:05:00      0.226     0.547    0.0000
   01/01/2000 17:10:00      0.226     0.545    0.0000
   01/01/2000 17:15:00      0.224     0.542    0.0000
   01/01/2000 17:20:00      0.221     0.540    0.0000
   01/01/2000 17:25:00      0.219     0.537    0.0000
   01/01/2000 17:30:00      0.216     0.535    0.0000
   01/01/2000 17:35:00      0.214     0.535    0.0000
   01/01/2000 17:40:00      0.214     0.533    0.0000
   01/01/2000 17:45:00      0.211     0.530    0.0000
   01/01/2000 17:50:00      0.209     0.528    0.0000
   01/01/2000 17:55:00      0.206     0.526    0.0000
   01/01/2000 18:00:00      0.204     0.524    0.0000
   01/01/2000 18:05:00      0.201     0.524    0.0000
   01/01/2000 18:10:00      0.201     0.522    0.0000
   01/01/2000 18:15:00      0.199     0.520    0.0000
   01/01/2000 18:20:00      0.196     0.518    0.0000
   01/01/2000 18:25:00      0.194     0.516    0.0000
   01/01/2000 18:30:00      0.191     0.514    0.0000
   01/01/2000 18:35:00      0.189     0.514    0.0000
   01/01/2000 18:40:00      0.189     0.512    0.0000
   01/01/2000 18:45:00      0.186     0.510    0.0000
   01/01/2000 18:50:00      0.184     0.508    0.0000
   01/01/2000 18:55:00      0.181     0.506    0.0000
   01/01/2000 19:00:00      0.179     0.504    0.0000
   01/01/2000 19:05:00      0.176     0.504    0.0000
   01/01/2000 19:10:00      0.176     0.503    0.0000
   01/01/2000 19:15:00      0.174     0.501    0.0000
   01/01/2000 19:20:00      0.171     0.499    0.0000
   01/01/2000 19:25:00      0.169     0.498    0.0000
   01/01/2000 19:30:00      0.166     0.496    0.0000
   01/01/2000 19:35:00      0.164     0.496    0.0000
   01/01/2000 19:40:00      0.164     0.494    0.0000
   01/01/2000 19:45:00      0.161     0.493    0.0000
   01/01/2000 19:50:00      0.159     0.491    0.0000
   01/01/2000 19:55:00      0.156     0.489    0.0000
   01/01/2000 20:00:00      0.154     0.489    0.0000
   01/01/2000 20:05:00      0.154     0.488    0.0000
   01/01/2000 20:10:00      0.151     0.486    0.0000
   01/01/2000 20:15:00      0.149     0.485    0.0000
   01/01/2000 20:20:00      0.146     0.483    0.0000
   01/01/2000 20:25:00      0.144     0.482    0.0000
   01/01/2000 20:30:00      0.141     0.482    0.0000
   01/01/2000 20:35:00      0.141     0.480    0.0000
   01/01/2000 20:40:00      0.139     0.479    0.0000
   01/01/2000 20:45:00      0.136     0.478    0.0000
   01/01/2000 20:50:00      0.134     0.476    0.0000
   01/01/2000 20:55:00      0.131     0.475    0.0000
   01/01/2000 21:00:00      0.130     0.475    0.0000
   01/01/2000 21:05:00      0.130     0.474    0.0000
   01/01/2000 21:10:00      0.129     0.472    0.0000
   01/01/2000 21:15:00      0.129     0.471    0.0000
   01/01/2000 21:20:00      0.128     0.470    0.0000
   01/01/2000 21:25:00      0.128     0.469    0.0000
   01/01/2000 21:30:00      0.127     0.469    0.0000
   01/01/2000 21:35:00      0.127     0.467    0.0000
   01/01/2000 21:40:00      0.127     0.466    0.0000
   01/01/2000 21:45:00      0.126     0.465    0.0000
   01/01/2000 21:50:00      0.126     0.464    0.0000
   01/01/2000 21:55:00      0.125     0.463    0.0000
  
  
  <<< Subcatchment S3 >>>
  ---------------------------------------------------
  Date        Time        Precip.    Losses    Runoff
                            mm/hr     mm/hr       CMS
  ---------------------------------------------------
   01/01/2000 00:05:00      0.000     0.000    0.0000
   01/01/2000 00:10:00      0.000     0.000    0.0000
   01/01/2000 00:15:00      0.000     0.000    0.0000
   01/01/2000 00:20:00      0.000     0.000    0.0000
   01/01/2000 00:25:00      0.000     0.000    0.0000
   01/01/2000 00:30:00      0.000     0.000    0.0000
   01/01/2000 00:35:00      0.000     0.000    0.0000
   01/01/2000 00:40:00      0.000     0.000    0.0000
   01/01/2000 00:45:00      0.000     0.000    0.0000
   01/01/2000 00:50:00      0.000     0.000    0.0000
   01/01/2000 00:55:00      0.000     0.000    0.0000
   01/01/2000 01:00:00      0.101     0.000    0.0000
   01/01/2000 01:05:00      0.101     0.000    0.0000
   01/01/2000 01:10:00      0.101     0.000    0.0000
   01/01/2000 01:15:00      0.103     0.000    0.0000
   01/01/2000 01:20:00      0.103     0.000    0.0000
   01/01/2000 01:25:00      0.105     0.000    0.0000
   01/01/2000 01:30:00      0.105     0.000    0.0000
   01/01/2000 01:35:00      0.105     0.000    0.0000
   01/01/2000 01:40:00      0.107     0.000    0.0000
   01/01/2000 01:45:00      0.107     0.000    0.0000
   01/01/2000 01:50:00      0.109     0.000    0.0000
   01/01/2000 01:55:00      0.109     0.000    0.0000
   01/01/2000 02:00:00      0.111     0.000    0.0003
   01/01/2000 02:05:00      0.111     0.000    0.0003
   01/01/2000 02:10:00      0.111     0.000    0.0004
   01/01/2000 02:15:00      0.113     0.000    0.0004
   01/01/2000 02:20:00      0.113     0.000    0.0004
   01/01/2000 02:25:00      0.115     0.000    0.0005
   01/01/2000 02:30:00      0.115     0.000    0.0005
   01/01/2000 02:35:00      0.115     0.000    0.0005
   01/01/2000 02:40:00      0.117     0.000    0.0006
   01/01/2000 02:45:00      0.117     0.000    0.0006
   01/01/2000 02:50:00      0.119     0.000    0.0006
   01/01/2000 02:55:00      0.119     0.000    0.0007
   01/01/2000 03:00:00      0.121     0.000    0.0007
   01/01/2000 03:05:00      0.121     0.000    0.0007
   01/01/2000 03:10:00      0.121     0.000    0.0007
   01/01/2000 03:15:00      0.123     0.000    0.0007
   01/01/2000 03:20:00      0.123     0.000    0.0008
   01/01/2000 03:25:00      0.125     0.000    0.0008
   01/01/2000 03:30:00      0.125     0.000    0.0008
   01/01/2000 03:35:00      0.125     0.000    0.0008
   01/01/2000 03:40:00      0.127     0.000    0.0008
   01/01/2000 03:45:00      0.127     0.000    0.0008
   01/01/2000 03:50:00      0.129     0.000    0.0009
   01/01/2000 03:55:00      0.129     0.000    0.0009
   01/01/2000 04:00:00      0.131     0.000    0.0009
   01/01/2000 04:05:00      0.131     0.000    0.0009
   01/01/2000 04:10:00      0.131     0.000    0.0009
   01/01/2000 04:15:00      0.133     0.000    0.0009
   01/01/2000 04:20:00      0.133     0.000    0.0009
   01/01/2000 04:25:00      0.135     0.000    0.0009
   01/01/2000 04:30:00      0.135     0.000    0.0010
   01/01/2000 04:35:00      0.135     0.000    0.0010
   01/01/2000 04:40:00      0.137     0.000    0.0010
   01/01/2000 04:45:00      0.137     0.000    0.0010
   01/01/2000 04:50:00      0.139     0.000    0.0010
   01/01/2000 04:55:00      0.139     0.000    0.0010
   01/01/2000 05:00:00      0.141     0.000    0.0010
   01/01/2000 05:05:00      0.141     0.000    0.0010
   01/01/2000 05:10:00      0.143     0.000    0.0010
   01/01/2000 05:15:00      0.145     0.000    0.0010
   01/01/2000 05:20:00      0.147     0.000    0.0010
   01/01/2000 05:25:00      0.149     0.000    0.0011
   01/01/2000 05:30:00      0.151     0.000    0.0011
   01/01/2000 05:35:00      0.153     0.000    0.0011
   01/01/2000 05:40:00      0.153     0.000    0.0011
   01/01/2000 05:45:00      0.155     0.000    0.0011
   01/01/2000 05:50:00      0.157     0.000    0.0011
   01/01/2000 05:55:00      0.159     0.000    0.0011
   01/01/2000 06:00:00      0.161     0.000    0.0011
   01/01/2000 06:05:00      0.163     0.000    0.0012
   01/01/2000 06:10:00      0.163     0.000    0.0012
   01/01/2000 06:15:00      0.165     0.000    0.0012
   01/01/2000 06:20:00      0.167     0.000    0.0012
   01/01/2000 06:25:00      0.169     0.000    0.0012
   01/01/2000 06:30:00      0.171     0.000    0.0012
   01/01/2000 06:35:00      0.173     0.000    0.0012
   01/01/2000 06:40:00      0.173     0.000    0.0012
   01/01/2000 06:45:00      0.175     0.000    0.0013
   01/01/2000 06:50:00      0.177     0.000    0.0013
   01/01/2000 06:55:00      0.179     0.000    0.0013
   01/01/2000 07:00:00      0.181     0.000    0.0013
   01/01/2000 07:05:00      0.183     0.000    0.0013
   01/01/2000 07:10:00      0.183     0.000    0.0013
   01/01/2000 07:15:00      0.185     0.000    0.0013
   01/01/2000 07:20:00      0.187     0.000    0.0013
   01/01/2000 07:25:00      0.189     0.000    0.0014
   01/01/2000 07:30:00      0.191     0.000    0.0014
   01/01/2000 07:35:00      0.193     0.000    0.0014
   01/01/2000 07:40:00      0.193     0.000    0.0014
   01/01/2000 07:45:00      0.195     0.000    0.0014
   01/01/2000 07:50:00      0.197     0.000    0.0014
   01/01/2000 07:55:00      0.199     0.000    0.0014
   01/01/2000 08:00:00      0.201     0.000    0.0015
   01/01/2000 08:05:00      0.203     0.000    0.0015
   01/01/2000 08:10:00      0.203     0.000    0.0015
   01/01/2000 08:15:00      0.205     0.000    0.0015
   01/01/2000 08:20:00      0.207     0.000    0.0015
   01/01/2000 08:25:00      0.209     0.000    0.0015
   01/01/2000 08:30:00      0.211     0.000    0.0015
   01/01/2000 08:35:00      0.213     0.000    0.0015
   01/01/2000 08:40:00      0.213     0.000    0.0016
   01/01/2000 08:45:00      0.215     0.000    0.0016
   01/01/2000 08:50:00      0.217     0.000    0.0016
   01/01/2000 08:55:00      0.219     0.000    0.0016
   01/01/2000 09:00:00      0.225     0.000    0.0016
   01/01/2000 09:05:00      0.235     0.000    0.0016
   01/01/2000 09:10:00      0.235     0.000    0.0017
   01/01/2000 09:15:00      0.245     0.000    0.0017
   01/01/2000 09:20:00      0.255     0.000    0.0017
   01/01/2000 09:25:00      0.265     0.000    0.0018
   01/01/2000 09:30:00      0.275     0.000    0.0018
   01/01/2000 09:35:00      0.285     0.000    0.0018
   01/01/2000 09:40:00      0.285     0.000    0.0019
   01/01/2000 09:45:00      0.295     0.000    0.0019
   01/01/2000 09:50:00      0.305     0.000    0.0020
   01/01/2000 09:55:00      0.315     0.000    0.0020
   01/01/2000 10:00:00      0.320     0.000    0.0021
   01/01/2000 10:05:00      0.320     0.000    0.0022
   01/01/2000 10:10:00      0.320     0.000    0.0022
   01/01/2000 10:15:00      0.320     0.000    0.0022
   01/01/2000 10:20:00      0.320     0.000    0.0023
   01/01/2000 10:25:00      0.320     0.000    0.0023
   01/01/2000 10:30:00      0.328     0.000    0.0023
   01/01/2000 10:35:00      0.344     0.000    0.0024
   01/01/2000 10:40:00      0.344     0.000    0.0024
   01/01/2000 10:45:00      0.360     0.000    0.0025
   01/01/2000 10:50:00      0.376     0.000    0.0025
   01/01/2000 10:55:00      0.392     0.000    0.0026
   01/01/2000 11:00:00      0.412     0.000    0.0027
   01/01/2000 11:05:00      0.436     0.000    0.0027
   01/01/2000 11:10:00      0.436     0.000    0.0028
   01/01/2000 11:15:00      0.460     0.000    0.0029
   01/01/2000 11:20:00      0.484     0.000    0.0032
   01/01/2000 11:25:00      0.508     0.000    0.0038
   01/01/2000 11:30:00      0.540     0.000    0.0047
   01/01/2000 11:35:00      0.580     0.000    0.0049
   01/01/2000 11:40:00      0.580     0.000    0.0052
   01/01/2000 11:45:00      0.620     0.000    0.0055
   01/01/2000 11:50:00      0.660     0.000    0.0057
   01/01/2000 11:55:00      0.700     0.000    0.0061
   01/01/2000 12:00:00      0.768     0.000    0.0064
   01/01/2000 12:05:00      0.864     0.000    0.0068
   01/01/2000 12:10:00      0.864     0.000    0.0073
   01/01/2000 12:15:00      0.960     0.000    0.0079
   01/01/2000 12:20:00      1.056     0.000    0.0086
   01/01/2000 12:25:00      1.152     0.000    0.0093
   01/01/2000 12:30:00      2.384     0.000    0.0106
   01/01/2000 12:35:00      4.752     0.000    0.0143
   01/01/2000 12:40:00      4.752     0.000    0.0244
   01/01/2000 12:45:00      7.643     0.000    0.0414
   01/01/2000 12:50:00     13.707     0.000    0.0731
   01/01/2000 12:55:00      9.514     0.000    0.0988
   01/01/2000 13:00:00      1.896     0.000    0.0952
   01/01/2000 13:05:00      1.668     0.000    0.0631
   01/01/2000 13:10:00      1.668     0.000    0.0473
   01/01/2000 13:15:00      1.440     0.000    0.0369
   01/01/2000 13:20:00      1.212     0.000    0.0298
   01/01/2000 13:25:00      0.984     0.000    0.0246
   01/01/2000 13:30:00      0.844     0.000    0.0206
   01/01/2000 13:35:00      0.792     0.000    0.0176
   01/01/2000 13:40:00      0.792     0.000    0.0154
   01/01/2000 13:45:00      0.740     0.000    0.0137
   01/01/2000 13:50:00      0.688     0.000    0.0124
   01/01/2000 13:55:00      0.636     0.000    0.0113
   01/01/2000 14:00:00      0.596     0.000    0.0103
   01/01/2000 14:05:00      0.568     0.000    0.0095
   01/01/2000 14:10:00      0.568     0.000    0.0089
   01/01/2000 14:15:00      0.540     0.000    0.0083
   01/01/2000 14:20:00      0.512     0.000    0.0078
   01/01/2000 14:25:00      0.484     0.000    0.0074
   01/01/2000 14:30:00      0.460     0.000    0.0070
   01/01/2000 14:35:00      0.440     0.000    0.0067
   01/01/2000 14:40:00      0.440     0.000    0.0063
   01/01/2000 14:45:00      0.420     0.000    0.0061
   01/01/2000 14:50:00      0.400     0.000    0.0058
   01/01/2000 14:55:00      0.380     0.000    0.0055
   01/01/2000 15:00:00      0.367     0.000    0.0053
   01/01/2000 15:05:00      0.359     0.000    0.0051
   01/01/2000 15:10:00      0.359     0.000    0.0049
   01/01/2000 15:15:00      0.353     0.000    0.0048
   01/01/2000 15:20:00      0.345     0.000    0.0046
   01/01/2000 15:25:00      0.339     0.000    0.0045
   01/01/2000 15:30:00      0.331     0.000    0.0044
   01/01/2000 15:35:00      0.325     0.000    0.0043
   01/01/2000 15:40:00      0.325     0.000    0.0042
   01/01/2000 15:45:00      0.317     0.000    0.0041
   01/01/2000 15:50:00      0.311     0.000    0.0040
   01/01/2000 15:55:00      0.303     0.000    0.0039
   01/01/2000 16:00:00      0.297     0.000    0.0038
   01/01/2000 16:05:00      0.289     0.000    0.0037
   01/01/2000 16:10:00      0.289     0.000    0.0037
   01/01/2000 16:15:00      0.283     0.000    0.0036
   01/01/2000 16:20:00      0.275     0.000    0.0035
   01/01/2000 16:25:00      0.269     0.000    0.0034
   01/01/2000 16:30:00      0.261     0.000    0.0034
   01/01/2000 16:35:00      0.255     0.000    0.0033
   01/01/2000 16:40:00      0.255     0.000    0.0032
   01/01/2000 16:45:00      0.247     0.000    0.0032
   01/01/2000 16:50:00      0.241     0.000    0.0031
   01/01/2000 16:55:00      0.233     0.000    0.0030
   01/01/2000 17:00:00      0.229     0.000    0.0030
   01/01/2000 17:05:00      0.226     0.000    0.0029
   01/01/2000 17:10:00      0.226     0.000    0.0029
   01/01/2000 17:15:00      0.224     0.000    0.0028
   01/01/2000 17:20:00      0.221     0.000    0.0028
   01/01/2000 17:25:00      0.219     0.000    0.0027
   01/01/2000 17:30:00      0.216     0.000    0.0027
   01/01/2000 17:35:00      0.214     0.000    0.0027
   01/01/2000 17:40:00      0.214     0.000    0.0026
   01/01/2000 17:45:00      0.211     0.000    0.0026
   01/01/2000 17:50:00      0.209     0.000    0.0025
   01/01/2000 17:55:00      0.206     0.000    0.0025
   01/01/2000 18:00:00      0.204     0.000    0.0025
   01/01/2000 18:05:00      0.201     0.000    0.0025
   01/01/2000 18:10:00      0.201     0.000    0.0024
   01/01/2000 18:15:00      0.199     0.000    0.0024
   01/01/2000 18:20:00      0.196     0.000    0.0024
   01/01/2000 18:25:00      0.194     0.000    0.0024
   01/01/2000 18:30:00      0.191     0.000    0.0023
   01/01/2000 18:35:00      0.189     0.000    0.0023
   01/01/2000 18:40:00      0.189     0.000    0.0023
   01/01/2000 18:45:00      0.186     0.000    0.0023
   01/01/2000 18:50:00      0.184     0.000    0.0022
   01/01/2000 18:55:00      0.181     0.000    0.0022
   01/01/2000 19:00:00      0.179     0.000    0.0022
   01/01/2000 19:05:00      0.176     0.000    0.0022
   01/01/2000 19:10:00      0.176     0.000    0.0021
   01/01/2000 19:15:00      0.174     0.000    0.0021
   01/01/2000 19:20:00      0.171     0.000    0.0021
   01/01/2000 19:25:00      0.169     0.000    0.0021
   01/01/2000 19:30:00      0.166     0.000    0.0020
   01/01/2000 19:35:00      0.164     0.000    0.0020
   01/01/2000 19:40:00      0.164     0.000    0.0020
   01/01/2000 19:45:00      0.161     0.000    0.0020
   01/01/2000 19:50:00      0.159     0.000    0.0019
   01/01/2000 19:55:00      0.156     0.000    0.0019
   01/01/2000 20:00:00      0.154     0.000    0.0019
   01/01/2000 20:05:00      0.154     0.000    0.0019
   01/01/2000 20:10:00      0.151     0.000    0.0019
   01/01/2000 20:15:00      0.149     0.000    0.0018
   01/01/2000 20:20:00      0.146     0.000    0.0018
   01/01/2000 20:25:00      0.144     0.000    0.0018
   01/01/2000 20:30:00      0.141     0.000    0.0018
   01/01/2000 20:35:00      0.141     0.000    0.0017
   01/01/2000 20:40:00      0.139     0.000    0.0017
   01/01/2000 20:45:00      0.136     0.000    0.0017
   01/01/2000 20:50:00      0.134     0.000    0.0017
   01/01/2000 20:55:00      0.131     0.000    0.0017
   01/01/2000 21:00:00      0.130     0.000    0.0016
   01/01/2000 21:05:00      0.130     0.000    0.0016
   01/01/2000 21:10:00      0.129     0.000    0.0016
   01/01/2000 21:15:00      0.129     0.000    0.0016
   01/01/2000 21:20:00      0.128     0.000    0.0016
   01/01/2000 21:25:00      0.128     0.000    0.0015
   01/01/2000 21:30:00      0.127     0.000    0.0015
   01/01/2000 21:35:00      0.127     0.000    0.0015
   01/01/2000 21:40:00      0.127     0.000    0.0015
   01/01/2000 21:45:00      0.126     0.000    0.0015
   01/01/2000 21:50:00      0.126     0.000    0.0015
   01/01/2000 21:55:00      0.125     0.000    0.0015
  
  
  ************
  Node Results
  ************
  
  <<< Node J3 >>>
  ----------------------------------------------------------------
                           Inflow  Flooding     Depth      Head
  Date        Time            CMS       CMS    meters    meters
  ----------------------------------------------------------------
   01/01/2000 00:05:00      0.000     0.000     0.000    93.000
   01/01/2000 00:10:00      0.000     0.000     0.000    93.000
   01/01/2000 00:15:00      0.000     0.000     0.000    93.000
   01/01/2000 00:20:00      0.000     0.000     0.000    93.000
   01/01/2000 00:25:00      0.000     0.000     0.000    93.000
   01/01/2000 00:30:00      0.000     0.000     0.000    93.000
   01/01/2000 00:35:00      0.000     0.000     0.000    93.000
   01/01/2000 00:40:00      0.000     0.000     0.000    93.000
   01/01/2000 00:45:00      0.000     0.000     0.000    93.000
   01/01/2000 00:50:00      0.000     0.000     0.000    93.000
   01/01/2000 00:55:00      0.000     0.000     0.000    93.000
   01/01/2000 01:00:00      0.000     0.000     0.000    93.000
   01/01/2000 01:05:00      0.000     0.000     0.001    93.001
   01/01/2000 01:10:00      0.000     0.000     0.001    93.001
   01/01/2000 01:15:00      0.000     0.000     0.002    93.002
   01/01/2000 01:20:00      0.000     0.000     0.003    93.003
   01/01/2000 01:25:00      0.000     0.000     0.004    93.004
   01/01/2000 01:30:00      0.000     0.000     0.004    93.004
   01/01/2000 01:35:00      0.000     0.000     0.005    93.005
   01/01/2000 01:40:00      0.000     0.000     0.006    93.006
   01/01/2000 01:45:00      0.000     0.000     0.006    93.006
   01/01/2000 01:50:00      0.000     0.000     0.007    93.007
   01/01/2000 01:55:00      0.000     0.000     0.007    93.007
   01/01/2000 02:00:00      0.000     0.000     0.008    93.008
   01/01/2000 02:05:00      0.000     0.000     0.008    93.008
   01/01/2000 02:10:00      0.000     0.000     0.009    93.009
   01/01/2000 02:15:00      0.000     0.000     0.009    93.009
   01/01/2000 02:20:00      0.000     0.000     0.009    93.009
   01/01/2000 02:25:00      0.000     0.000     0.010    93.010
   01/01/2000 02:30:00      0.001     0.000     0.010    93.010
   01/01/2000 02:35:00      0.001     0.000     0.010    93.010
   01/01/2000 02:40:00      0.001     0.000     0.010    93.010
   01/01/2000 02:45:00      0.001     0.000     0.011    93.011
   01/01/2000 02:50:00      0.001     0.000     0.011    93.011
   01/01/2000 02:55:00      0.001     0.000     0.011    93.011
   01/01/2000 03:00:00      0.001     0.000     0.011    93.011
   01/01/2000 03:05:00      0.001     0.000     0.011    93.011
   01/01/2000 03:10:00      0.001     0.000     0.012    93.012
   01/01/2000 03:15:00      0.001     0.000     0.012    93.012
   01/01/2000 03:20:00      0.001     0.000     0.012    93.012
   01/01/2000 03:25:00      0.001     0.000     0.012    93.012
   01/01/2000 03:30:00      0.001     0.000     0.012    93.012
   01/01/2000 03:35:00      0.001     0.000     0.012    93.012
   01/01/2000 03:40:00      0.001     0.000     0.012    93.012
   01/01/2000 03:45:00      0.001     0.000     0.013    93.013
   01/01/2000 03:50:00      0.001     0.000     0.013    93.013
   01/01/2000 03:55:00      0.001     0.000     0.013    93.013
   01/01/2000 04:00:00      0.001     0.000     0.013    93.013
   01/01/2000 04:05:00      0.001     0.000     0.013    93.013
   01/01/2000 04:10:00      0.001     0.000     0.013    93.013
   01/01/2000 04:15:00      0.001     0.000     0.013    93.013
   01/01/2000 04:20:00      0.001     0.000     0.013    93.013
   01/01/2000 04:25:00      0.001     0.000     0.013    93.013
   01/01/2000 04:30:00      0.001     0.000     0.013    93.013
   01/01/2000 04:35:00      0.001     0.000     0.013    93.013
   01/01/2000 04:40:00      0.001     0.000     0.013    93.013
   01/01/2000 04:45:00      0.001     0.000     0.013    93.013
   01/01/2000 04:50:00      0.001     0.000     0.013    93.013
   01/01/2000 04:55:00      0.001     0.000     0.014    93.014
   01/01/2000 05:00:00      0.001     0.000     0.014    93.014
   01/01/2000 05:05:00      0.001     0.000     0.014    93.014
   01/01/2000 05:10:00      0.001     0.000     0.014    93.014
   01/01/2000 05:15:00      0.001     0.000     0.014    93.014
   01/01/2000 05:20:00      0.001     0.000     0.014    93.014
   01/01/2000 05:25:00      0.001     0.000     0.014    93.014
   01/01/2000 05:30:00      0.001     0.000     0.014    93.014
   01/01/2000 05:35:00      0.001     0.000     0.014    93.014
   01/01/2000 05:40:00      0.001     0.000     0.014    93.014
   01/01/2000 05:45:00      0.001     0.000     0.014    93.014
   01/01/2000 05:50:00      0.001     0.000     0.014    93.014
   01/01/2000 05:55:00      0.001     0.000     0.014    93.014
   01/01/2000 06:00:00      0.001     0.000     0.014    93.014
   01/01/2000 06:05:00      0.001     0.000     0.014    93.014
   01/01/2000 06:10:00      0.001     0.000     0.015    93.015
   01/01/2000 06:15:00      0.001     0.000     0.015    93.015
   01/01/2000 06:20:00      0.001     0.000     0.015    93.015
   01/01/2000 06:25:00      0.001     0.000     0.015    93.015
   01/01/2000 06:30:00      0.001     0.000     0.015    93.015
   01/01/2000 06:35:00      0.001     0.000     0.015    93.015
   01/01/2000 06:40:00      0.001     0.000     0.015    93.015
   01/01/2000 06:45:00      0.001     0.000     0.015    93.015
   01/01/2000 06:50:00      0.001     0.000     0.015    93.015
   01/01/2000 06:55:00      0.001     0.000     0.015    93.015
   01/01/2000 07:00:00      0.001     0.000     0.015    93.015
   01/01/2000 07:05:00      0.001     0.000     0.015    93.015
   01/01/2000 07:10:00      0.001     0.000     0.015    93.015
   01/01/2000 07:15:00      0.001     0.000     0.015    93.015
   01/01/2000 07:20:00      0.001     0.000     0.016    93.016
   01/01/2000 07:25:00      0.001     0.000     0.016    93.016
   01/01/2000 07:30:00      0.001     0.000     0.016    93.016
   01/01/2000 07:35:00      0.001     0.000     0.016    93.016
   01/01/2000 07:40:00      0.001     0.000     0.016    93.016
   01/01/2000 07:45:00      0.001     0.000     0.016    93.016
   01/01/2000 07:50:00      0.001     0.000     0.016    93.016
   01/01/2000 07:55:00      0.001     0.000     0.016    93.016
   01/01/2000 08:00:00      0.001     0.000     0.016    93.016
   01/01/2000 08:05:00      0.001     0.000     0.016    93.016
   01/01/2000 08:10:00      0.001     0.000     0.016    93.016
   01/01/2000 08:15:00      0.001     0.000     0.016    93.016
   01/01/2000 08:20:00      0.002     0.000     0.016    93.016
   01/01/2000 08:25:00      0.002     0.000     0.016    93.016
   01/01/2000 08:30:00      0.002     0.000     0.016    93.016
   01/01/2000 08:35:00      0.002     0.000     0.017    93.017
   01/01/2000 08:40:00      0.002     0.000     0.017    93.017
   01/01/2000 08:45:00      0.002     0.000     0.017    93.017
   01/01/2000 08:50:00      0.002     0.000     0.017    93.017
   01/01/2000 08:55:00      0.002     0.000     0.017    93.017
   01/01/2000 09:00:00      0.002     0.000     0.017    93.017
   01/01/2000 09:05:00      0.002     0.000     0.017    93.017
   01/01/2000 09:10:00      0.002     0.000     0.017    93.017
   01/01/2000 09:15:00      0.002     0.000     0.017    93.017
   01/01/2000 09:20:00      0.002     0.000     0.017    93.017
   01/01/2000 09:25:00      0.002     0.000     0.018    93.018
   01/01/2000 09:30:00      0.002     0.000     0.018    93.018
   01/01/2000 09:35:00      0.002     0.000     0.018    93.018
   01/01/2000 09:40:00      0.002     0.000     0.018    93.018
   01/01/2000 09:45:00      0.002     0.000     0.018    93.018
   01/01/2000 09:50:00      0.002     0.000     0.019    93.019
   01/01/2000 09:55:00      0.002     0.000     0.019    93.019
   01/01/2000 10:00:00      0.002     0.000     0.019    93.019
   01/01/2000 10:05:00      0.002     0.000     0.019    93.019
   01/01/2000 10:10:00      0.002     0.000     0.019    93.019
   01/01/2000 10:15:00      0.002     0.000     0.020    93.020
   01/01/2000 10:20:00      0.002     0.000     0.020    93.020
   01/01/2000 10:25:00      0.002     0.000     0.020    93.020
   01/01/2000 10:30:00      0.002     0.000     0.020    93.020
   01/01/2000 10:35:00      0.002     0.000     0.020    93.020
   01/01/2000 10:40:00      0.002     0.000     0.020    93.020
   01/01/2000 10:45:00      0.002     0.000     0.020    93.020
   01/01/2000 10:50:00      0.003     0.000     0.021    93.021
   01/01/2000 10:55:00      0.003     0.000     0.021    93.021
   01/01/2000 11:00:00      0.003     0.000     0.021    93.021
   01/01/2000 11:05:00      0.003     0.000     0.022    93.022
   01/01/2000 11:10:00      0.003     0.000     0.022    93.022
   01/01/2000 11:15:00      0.003     0.000     0.022    93.022
   01/01/2000 11:20:00      0.003     0.000     0.023    93.023
   01/01/2000 11:25:00      0.004     0.000     0.024    93.024
   01/01/2000 11:30:00      0.005     0.000     0.028    93.028
   01/01/2000 11:35:00      0.005     0.000     0.028    93.028
   01/01/2000 11:40:00      0.005     0.000     0.029    93.029
   01/01/2000 11:45:00      0.005     0.000     0.030    93.030
   01/01/2000 11:50:00      0.006     0.000     0.030    93.030
   01/01/2000 11:55:00      0.006     0.000     0.031    93.031
   01/01/2000 12:00:00      0.006     0.000     0.032    93.032
   01/01/2000 12:05:00      0.007     0.000     0.033    93.033
   01/01/2000 12:10:00      0.007     0.000     0.034    93.034
   01/01/2000 12:15:00      0.008     0.000     0.035    93.035
   01/01/2000 12:20:00      0.008     0.000     0.036    93.036
   01/01/2000 12:25:00      0.009     0.000     0.038    93.038
   01/01/2000 12:30:00      0.010     0.000     0.039    93.039
   01/01/2000 12:35:00      0.014     0.000     0.045    93.045
   01/01/2000 12:40:00      0.022     0.000     0.057    93.057
   01/01/2000 12:45:00      0.038     0.000     0.073    93.073
   01/01/2000 12:50:00      0.065     0.000     0.094    93.094
   01/01/2000 12:55:00      0.098     0.000     0.115    93.115
   01/01/2000 13:00:00      0.102     0.000     0.117    93.117
   01/01/2000 13:05:00      0.069     0.000     0.097    93.097
   01/01/2000 13:10:00      0.050     0.000     0.084    93.084
   01/01/2000 13:15:00      0.039     0.000     0.074    93.074
   01/01/2000 13:20:00      0.031     0.000     0.067    93.067
   01/01/2000 13:25:00      0.025     0.000     0.061    93.061
   01/01/2000 13:30:00      0.021     0.000     0.056    93.056
   01/01/2000 13:35:00      0.018     0.000     0.052    93.052
   01/01/2000 13:40:00      0.016     0.000     0.049    93.049
   01/01/2000 13:45:00      0.014     0.000     0.046    93.046
   01/01/2000 13:50:00      0.013     0.000     0.044    93.044
   01/01/2000 13:55:00      0.011     0.000     0.042    93.042
   01/01/2000 14:00:00      0.010     0.000     0.040    93.040
   01/01/2000 14:05:00      0.010     0.000     0.039    93.039
   01/01/2000 14:10:00      0.009     0.000     0.038    93.038
   01/01/2000 14:15:00      0.008     0.000     0.036    93.036
   01/01/2000 14:20:00      0.008     0.000     0.035    93.035
   01/01/2000 14:25:00      0.007     0.000     0.034    93.034
   01/01/2000 14:30:00      0.007     0.000     0.034    93.034
   01/01/2000 14:35:00      0.007     0.000     0.033    93.033
   01/01/2000 14:40:00      0.006     0.000     0.032    93.032
   01/01/2000 14:45:00      0.006     0.000     0.031    93.031
   01/01/2000 14:50:00      0.006     0.000     0.031    93.031
   01/01/2000 14:55:00      0.006     0.000     0.030    93.030
   01/01/2000 15:00:00      0.005     0.000     0.029    93.029
   01/01/2000 15:05:00      0.005     0.000     0.029    93.029
   01/01/2000 15:10:00      0.005     0.000     0.028    93.028
   01/01/2000 15:15:00      0.005     0.000     0.028    93.028
   01/01/2000 15:20:00      0.005     0.000     0.028    93.028
   01/01/2000 15:25:00      0.005     0.000     0.027    93.027
   01/01/2000 15:30:00      0.004     0.000     0.027    93.027
   01/01/2000 15:35:00      0.004     0.000     0.027    93.027
   01/01/2000 15:40:00      0.004     0.000     0.026    93.026
   01/01/2000 15:45:00      0.004     0.000     0.026    93.026
   01/01/2000 15:50:00      0.004     0.000     0.026    93.026
   01/01/2000 15:55:00      0.004     0.000     0.025    93.025
   01/01/2000 16:00:00      0.004     0.000     0.025    93.025
   01/01/2000 16:05:00      0.004     0.000     0.025    93.025
   01/01/2000 16:10:00      0.004     0.000     0.025    93.025
   01/01/2000 16:15:00      0.004     0.000     0.025    93.025
   01/01/2000 16:20:00      0.004     0.000     0.024    93.024
   01/01/2000 16:25:00      0.003     0.000     0.024    93.024
   01/01/2000 16:30:00      0.003     0.000     0.024    93.024
   01/01/2000 16:35:00      0.003     0.000     0.024    93.024
   01/01/2000 16:40:00      0.003     0.000     0.023    93.023
   01/01/2000 16:45:00      0.003     0.000     0.023    93.023
   01/01/2000 16:50:00      0.003     0.000     0.023    93.023
   01/01/2000 16:55:00      0.003     0.000     0.023    93.023
   01/01/2000 17:00:00      0.003     0.000     0.022    93.022
   01/01/2000 17:05:00      0.003     0.000     0.022    93.022
   01/01/2000 17:10:00      0.003     0.000     0.022    93.022
   01/01/2000 17:15:00      0.003     0.000     0.022    93.022
   01/01/2000 17:20:00      0.003     0.000     0.022    93.022
   01/01/2000 17:25:00      0.003     0.000     0.022    93.022
   01/01/2000 17:30:00      0.003     0.000     0.021    93.021
   01/01/2000 17:35:00      0.003     0.000     0.021    93.021
   01/01/2000 17:40:00      0.003     0.000     0.021    93.021
   01/01/2000 17:45:00      0.003     0.000     0.021    93.021
   01/01/2000 17:50:00      0.003     0.000     0.021    93.021
   01/01/2000 17:55:00      0.003     0.000     0.021    93.021
   01/01/2000 18:00:00      0.002     0.000     0.021    93.021
   01/01/2000 18:05:00      0.002     0.000     0.021    93.021
   01/01/2000 18:10:00      0.002     0.000     0.020    93.020
   01/01/2000 18:15:00      0.002     0.000     0.020    93.020
   01/01/2000 18:20:00      0.002     0.000     0.020    93.020
   01/01/2000 18:25:00      0.002     0.000     0.020    93.020
   01/01/2000 18:30:00      0.002     0.000     0.020    93.020
   01/01/2000 18:35:00      0.002     0.000     0.020    93.020
   01/01/2000 18:40:00      0.002     0.000     0.020    93.020
   01/01/2000 18:45:00      0.002     0.000     0.020    93.020
   01/01/2000 18:50:00      0.002     0.000     0.020    93.020
   01/01/2000 18:55:00      0.002     0.000     0.020    93.020
   01/01/2000 19:00:00      0.002     0.000     0.019    93.019
   01/01/2000 19:05:00      0.002     0.000     0.019    93.019
   01/01/2000 19:10:00      0.002     0.000     0.019    93.019
   01/01/2000 19:15:00      0.002     0.000     0.019    93.019
   01/01/2000 19:20:00      0.002     0.000     0.019    93.019
   01/01/2000 19:25:00      0.002     0.000     0.019    93.019
   01/01/2000 19:30:00      0.002     0.000     0.019    93.019
   01/01/2000 19:35:00      0.002     0.000     0.019    93.019
   01/01/2000 19:40:00      0.002     0.000     0.019    93.019
   01/01/2000 19:45:00      0.002     0.000     0.019    93.019
   01/01/2000 19:50:00      0.002     0.000     0.018    93.018
   01/01/2000 19:55:00      0.002     0.000     0.018    93.018
   01/01/2000 20:00:00      0.002     0.000     0.018    93.018
   01/01/2000 20:05:00      0.002     0.000     0.018    93.018
   01/01/2000 20:10:00      0.002     0.000     0.018    93.018
   01/01/2000 20:15:00      0.002     0.000     0.018    93.018
   01/01/2000 20:20:00      0.002     0.000     0.018    93.018
   01/01/2000 20:25:00      0.002     0.000     0.018    93.018
   01/01/2000 20:30:00      0.002     0.000     0.018    93.018
   01/01/2000 20:35:00      0.002     0.000     0.018    93.018
   01/01/2000 20:40:00      0.002     0.000     0.017    93.017
   01/01/2000 20:45:00      0.002     0.000     0.017    93.017
   01/01/2000 20:50:00      0.002     0.000     0.017    93.017
   01/01/2000 20:55:00      0.002     0.000     0.017    93.017
   01/01/2000 21:00:00      0.002     0.000     0.017    93.017
   01/01/2000 21:05:00      0.002     0.000     0.017    93.017
   01/01/2000 21:10:00      0.002     0.000     0.017    93.017
   01/01/2000 21:15:00      0.002     0.000     0.017    93.017
   01/01/2000 21:20:00      0.002     0.000     0.017    93.017
   01/01/2000 21:25:00      0.002     0.000     0.017    93.017
   01/01/2000 21:30:00      0.002     0.000     0.017    93.017
   01/01/2000 21:35:00      0.002     0.000     0.016    93.016
   01/01/2000 21:40:00      0.002     0.000     0.016    93.016
   01/01/2000 21:45:00      0.002     0.000     0.016    93.016
   01/01/2000 21:50:00      0.001     0.000     0.016    93.016
   01/01/2000 21:55:00      0.001     0.000     0.016    93.016
  
  
  <<< Node J1 >>>
  ----------------------------------------------------------------
                           Inflow  Flooding     Depth      Head
  Date        Time            CMS       CMS    meters    meters
  ----------------------------------------------------------------
   01/01/2000 00:05:00      0.000     0.000     0.000    96.000
   01/01/2000 00:10:00      0.000     0.000     0.000    96.000
   01/01/2000 00:15:00      0.000     0.000     0.000    96.000
   01/01/2000 00:20:00      0.000     0.000     0.000    96.000
   01/01/2000 00:25:00      0.000     0.000     0.000    96.000
   01/01/2000 00:30:00      0.000     0.000     0.000    96.000
   01/01/2000 00:35:00      0.000     0.000     0.000    96.000
   01/01/2000 00:40:00      0.000     0.000     0.000    96.000
   01/01/2000 00:45:00      0.000     0.000     0.000    96.000
   01/01/2000 00:50:00      0.000     0.000     0.000    96.000
   01/01/2000 00:55:00      0.000     0.000     0.000    96.000
   01/01/2000 01:00:00      0.000     0.000     0.000    96.000
   01/01/2000 01:05:00      0.000     0.000     0.001    96.001
   01/01/2000 01:10:00      0.000     0.000     0.001    96.001
   01/01/2000 01:15:00      0.000     0.000     0.002    96.002
   01/01/2000 01:20:00      0.000     0.000     0.002    96.002
   01/01/2000 01:25:00      0.000     0.000     0.003    96.003
   01/01/2000 01:30:00      0.000     0.000     0.003    96.003
   01/01/2000 01:35:00      0.000     0.000     0.004    96.004
   01/01/2000 01:40:00      0.000     0.000     0.004    96.004
   01/01/2000 01:45:00      0.001     0.000     0.005    96.005
   01/01/2000 01:50:00      0.001     0.000     0.005    96.005
   01/01/2000 01:55:00      0.001     0.000     0.006    96.006
   01/01/2000 02:00:00      0.001     0.000     0.006    96.006
   01/01/2000 02:05:00      0.001     0.000     0.006    96.006
   01/01/2000 02:10:00      0.001     0.000     0.007    96.007
   01/01/2000 02:15:00      0.001     0.000     0.007    96.007
   01/01/2000 02:20:00      0.001     0.000     0.007    96.007
   01/01/2000 02:25:00      0.001     0.000     0.007    96.007
   01/01/2000 02:30:00      0.001     0.000     0.007    96.007
   01/01/2000 02:35:00      0.001     0.000     0.007    96.007
   01/01/2000 02:40:00      0.001     0.000     0.007    96.007
   01/01/2000 02:45:00      0.001     0.000     0.007    96.007
   01/01/2000 02:50:00      0.001     0.000     0.007    96.007
   01/01/2000 02:55:00      0.001     0.000     0.007    96.007
   01/01/2000 03:00:00      0.001     0.000     0.007    96.007
   01/01/2000 03:05:00      0.001     0.000     0.007    96.007
   01/01/2000 03:10:00      0.001     0.000     0.007    96.007
   01/01/2000 03:15:00      0.001     0.000     0.007    96.007
   01/01/2000 03:20:00      0.001     0.000     0.007    96.007
   01/01/2000 03:25:00      0.001     0.000     0.008    96.008
   01/01/2000 03:30:00      0.001     0.000     0.008    96.008
   01/01/2000 03:35:00      0.001     0.000     0.008    96.008
   01/01/2000 03:40:00      0.001     0.000     0.008    96.008
   01/01/2000 03:45:00      0.001     0.000     0.008    96.008
   01/01/2000 03:50:00      0.001     0.000     0.008    96.008
   01/01/2000 03:55:00      0.001     0.000     0.008    96.008
   01/01/2000 04:00:00      0.001     0.000     0.008    96.008
   01/01/2000 04:05:00      0.001     0.000     0.008    96.008
   01/01/2000 04:10:00      0.001     0.000     0.008    96.008
   01/01/2000 04:15:00      0.001     0.000     0.008    96.008
   01/01/2000 04:20:00      0.001     0.000     0.008    96.008
   01/01/2000 04:25:00      0.001     0.000     0.008    96.008
   01/01/2000 04:30:00      0.001     0.000     0.008    96.008
   01/01/2000 04:35:00      0.001     0.000     0.008    96.008
   01/01/2000 04:40:00      0.001     0.000     0.008    96.008
   01/01/2000 04:45:00      0.001     0.000     0.008    96.008
   01/01/2000 04:50:00      0.002     0.000     0.008    96.008
   01/01/2000 04:55:00      0.002     0.000     0.008    96.008
   01/01/2000 05:00:00      0.002     0.000     0.008    96.008
   01/01/2000 05:05:00      0.002     0.000     0.008    96.008
   01/01/2000 05:10:00      0.002     0.000     0.008    96.008
   01/01/2000 05:15:00      0.002     0.000     0.008    96.008
   01/01/2000 05:20:00      0.002     0.000     0.008    96.008
   01/01/2000 05:25:00      0.002     0.000     0.008    96.008
   01/01/2000 05:30:00      0.002     0.000     0.008    96.008
   01/01/2000 05:35:00      0.002     0.000     0.008    96.008
   01/01/2000 05:40:00      0.002     0.000     0.008    96.008
   01/01/2000 05:45:00      0.002     0.000     0.008    96.008
   01/01/2000 05:50:00      0.002     0.000     0.008    96.008
   01/01/2000 05:55:00      0.002     0.000     0.008    96.008
   01/01/2000 06:00:00      0.002     0.000     0.008    96.008
   01/01/2000 06:05:00      0.002     0.000     0.008    96.008
   01/01/2000 06:10:00      0.002     0.000     0.009    96.009
   01/01/2000 06:15:00      0.002     0.000     0.009    96.009
   01/01/2000 06:20:00      0.002     0.000     0.009    96.009
   01/01/2000 06:25:00      0.002     0.000     0.009    96.009
   01/01/2000 06:30:00      0.002     0.000     0.009    96.009
   01/01/2000 06:35:00      0.002     0.000     0.009    96.009
   01/01/2000 06:40:00      0.002     0.000     0.009    96.009
   01/01/2000 06:45:00      0.002     0.000     0.009    96.009
   01/01/2000 06:50:00      0.002     0.000     0.009    96.009
   01/01/2000 06:55:00      0.002     0.000     0.009    96.009
   01/01/2000 07:00:00      0.002     0.000     0.009    96.009
   01/01/2000 07:05:00      0.002     0.000     0.009    96.009
   01/01/2000 07:10:00      0.002     0.000     0.009    96.009
   01/01/2000 07:15:00      0.002     0.000     0.009    96.009
   01/01/2000 07:20:00      0.002     0.000     0.009    96.009
   01/01/2000 07:25:00      0.002     0.000     0.009    96.009
   01/01/2000 07:30:00      0.002     0.000     0.009    96.009
   01/01/2000 07:35:00      0.002     0.000     0.009    96.009
   01/01/2000 07:40:00      0.002     0.000     0.009    96.009
   01/01/2000 07:45:00      0.002     0.000     0.009    96.009
   01/01/2000 07:50:00      0.002     0.000     0.009    96.009
   01/01/2000 07:55:00      0.002     0.000     0.009    96.009
   01/01/2000 08:00:00      0.002     0.000     0.009    96.009
   01/01/2000 08:05:00      0.002     0.000     0.009    96.009
   01/01/2000 08:10:00      0.002     0.000     0.009    96.009
   01/01/2000 08:15:00      0.002     0.000     0.009    96.009
   01/01/2000 08:20:00      0.002     0.000     0.010    96.010
   01/01/2000 08:25:00      0.002     0.000     0.010    96.010
   01/01/2000 08:30:00      0.002     0.000     0.010    96.010
   01/01/2000 08:35:00      0.002     0.000     0.010    96.010
   01/01/2000 08:40:00      0.002     0.000     0.010    96.010
   01/01/2000 08:45:00      0.002     0.000     0.010    96.010
   01/01/2000 08:50:00      0.002     0.000     0.010    96.010
   01/01/2000 08:55:00      0.002     0.000     0.010    96.010
   01/01/2000 09:00:00      0.002     0.000     0.010    96.010
   01/01/2000 09:05:00      0.002     0.000     0.010    96.010
   01/01/2000 09:10:00      0.002     0.000     0.010    96.010
   01/01/2000 09:15:00      0.003     0.000     0.010    96.010
   01/01/2000 09:20:00      0.003     0.000     0.010    96.010
   01/01/2000 09:25:00      0.003     0.000     0.010    96.010
   01/01/2000 09:30:00      0.003     0.000     0.011    96.011
   01/01/2000 09:35:00      0.003     0.000     0.011    96.011
   01/01/2000 09:40:00      0.003     0.000     0.011    96.011
   01/01/2000 09:45:00      0.003     0.000     0.011    96.011
   01/01/2000 09:50:00      0.003     0.000     0.011    96.011
   01/01/2000 09:55:00      0.003     0.000     0.011    96.011
   01/01/2000 10:00:00      0.003     0.000     0.011    96.011
   01/01/2000 10:05:00      0.003     0.000     0.012    96.012
   01/01/2000 10:10:00      0.003     0.000     0.012    96.012
   01/01/2000 10:15:00      0.003     0.000     0.012    96.012
   01/01/2000 10:20:00      0.004     0.000     0.012    96.012
   01/01/2000 10:25:00      0.004     0.000     0.012    96.012
   01/01/2000 10:30:00      0.004     0.000     0.012    96.012
   01/01/2000 10:35:00      0.004     0.000     0.012    96.012
   01/01/2000 10:40:00      0.004     0.000     0.012    96.012
   01/01/2000 10:45:00      0.004     0.000     0.012    96.012
   01/01/2000 10:50:00      0.004     0.000     0.012    96.012
   01/01/2000 10:55:00      0.004     0.000     0.012    96.012
   01/01/2000 11:00:00      0.004     0.000     0.013    96.013
   01/01/2000 11:05:00      0.004     0.000     0.013    96.013
[...]
   01/01/2000 18:25:00      0.002     1.634     0.010     0.002
   01/01/2000 18:30:00      0.002     1.627     0.009     0.002
   01/01/2000 18:35:00      0.002     1.620     0.009     0.002
   01/01/2000 18:40:00      0.002     1.612     0.009     0.002
   01/01/2000 18:45:00      0.002     1.606     0.009     0.002
   01/01/2000 18:50:00      0.002     1.598     0.009     0.002
   01/01/2000 18:55:00      0.002     1.591     0.009     0.002
   01/01/2000 19:00:00      0.002     1.584     0.009     0.002
   01/01/2000 19:05:00      0.002     1.577     0.009     0.002
   01/01/2000 19:10:00      0.002     1.569     0.009     0.002
   01/01/2000 19:15:00      0.002     1.562     0.009     0.002
   01/01/2000 19:20:00      0.002     1.555     0.009     0.002
   01/01/2000 19:25:00      0.002     1.547     0.009     0.002
   01/01/2000 19:30:00      0.002     1.539     0.009     0.002
   01/01/2000 19:35:00      0.002     1.532     0.009     0.002
   01/01/2000 19:40:00      0.002     1.524     0.009     0.002
   01/01/2000 19:45:00      0.002     1.517     0.009     0.002
   01/01/2000 19:50:00      0.002     1.508     0.009     0.002
   01/01/2000 19:55:00      0.002     1.501     0.009     0.002
   01/01/2000 20:00:00      0.002     1.493     0.009     0.002
   01/01/2000 20:05:00      0.002     1.485     0.009     0.002
   01/01/2000 20:10:00      0.002     1.478     0.009     0.002
   01/01/2000 20:15:00      0.002     1.470     0.008     0.002
   01/01/2000 20:20:00      0.002     1.462     0.008     0.001
   01/01/2000 20:25:00      0.002     1.454     0.008     0.001
   01/01/2000 20:30:00      0.002     1.445     0.008     0.001
   01/01/2000 20:35:00      0.002     1.437     0.008     0.001
   01/01/2000 20:40:00      0.002     1.428     0.008     0.001
   01/01/2000 20:45:00      0.002     1.420     0.008     0.001
   01/01/2000 20:50:00      0.002     1.411     0.008     0.001
   01/01/2000 20:55:00      0.002     1.403     0.008     0.001
   01/01/2000 21:00:00      0.002     1.394     0.008     0.001
   01/01/2000 21:05:00      0.002     1.385     0.008     0.001
   01/01/2000 21:10:00      0.001     1.377     0.008     0.001
   01/01/2000 21:15:00      0.001     1.370     0.008     0.001
   01/01/2000 21:20:00      0.001     1.365     0.008     0.001
   01/01/2000 21:25:00      0.001     1.360     0.008     0.001
   01/01/2000 21:30:00      0.001     1.356     0.008     0.001
   01/01/2000 21:35:00      0.001     1.353     0.008     0.001
   01/01/2000 21:40:00      0.001     1.349     0.008     0.001
   01/01/2000 21:45:00      0.001     1.347     0.008     0.001
   01/01/2000 21:50:00      0.001     1.344     0.008     0.001
   01/01/2000 21:55:00      0.001     1.342     0.008     0.001
  
  
  <<< Link C5 >>>
  ----------------------------------------------------------------
                             Flow  Velocity     Depth  Capacity/
  Date        Time            CMS     m/sec    meters   Setting 
  ----------------------------------------------------------------
   01/01/2000 00:05:00      0.000     0.000     0.000     0.000
   01/01/2000 00:10:00      0.000     0.000     0.000     0.000
   01/01/2000 00:15:00      0.000     0.000     0.000     0.000
   01/01/2000 00:20:00      0.000     0.000     0.000     0.000
   01/01/2000 00:25:00      0.000     0.000     0.000     0.000
   01/01/2000 00:30:00      0.000     0.000     0.000     0.000
   01/01/2000 00:35:00      0.000     0.000     0.000     0.000
   01/01/2000 00:40:00      0.000     0.000     0.000     0.000
   01/01/2000 00:45:00      0.000     0.000     0.000     0.000
   01/01/2000 00:50:00      0.000     0.000     0.000     0.000
   01/01/2000 00:55:00      0.000     0.000     0.000     0.000
   01/01/2000 01:00:00      0.000     0.000     0.000     0.000
   01/01/2000 01:05:00      0.000     0.000     0.000     0.000
   01/01/2000 01:10:00      0.000     0.000     0.000     0.000
   01/01/2000 01:15:00      0.000     0.000     0.000     0.000
   01/01/2000 01:20:00      0.000     0.000     0.000     0.000
   01/01/2000 01:25:00      0.000     0.000     0.000     0.000
   01/01/2000 01:30:00      0.000     0.000     0.000     0.000
   01/01/2000 01:35:00      0.000     0.000     0.000     0.000
   01/01/2000 01:40:00      0.000     0.000     0.000     0.000
   01/01/2000 01:45:00      0.000     0.000     0.000     0.000
   01/01/2000 01:50:00      0.000     0.000     0.000     0.000
   01/01/2000 01:55:00      0.000     0.000     0.000     0.000
   01/01/2000 02:00:00      0.000     0.000     0.000     0.000
   01/01/2000 02:05:00      0.000     0.000     0.000     0.000
   01/01/2000 02:10:00      0.000     0.000     0.000     0.000
   01/01/2000 02:15:00      0.000     0.000     0.000     0.000
   01/01/2000 02:20:00      0.000     0.000     0.000     0.000
   01/01/2000 02:25:00      0.000     0.000     0.000     0.000
   01/01/2000 02:30:00      0.000     0.000     0.000     0.000
   01/01/2000 02:35:00      0.000     0.000     0.000     0.000
   01/01/2000 02:40:00      0.000     0.000     0.000     0.000
   01/01/2000 02:45:00      0.000     0.000     0.000     0.000
   01/01/2000 02:50:00      0.000     0.000     0.000     0.000
   01/01/2000 02:55:00      0.000     0.000     0.000     0.000
   01/01/2000 03:00:00      0.000     0.000     0.000     0.000
   01/01/2000 03:05:00      0.000     0.000     0.000     0.000
   01/01/2000 03:10:00      0.000     0.000     0.000     0.000
   01/01/2000 03:15:00      0.000     0.000     0.000     0.000
   01/01/2000 03:20:00      0.000     0.000     0.000     0.000
   01/01/2000 03:25:00      0.000     0.000     0.000     0.000
   01/01/2000 03:30:00      0.000     0.000     0.000     0.000
   01/01/2000 03:35:00      0.000     0.000     0.000     0.000
   01/01/2000 03:40:00      0.000     0.000     0.000     0.000
   01/01/2000 03:45:00      0.000     0.000     0.000     0.000
   01/01/2000 03:50:00      0.000     0.000     0.000     0.000
   01/01/2000 03:55:00      0.000     0.000     0.000     0.000
   01/01/2000 04:00:00      0.000     0.000     0.000     0.000
   01/01/2000 04:05:00      0.000     0.000     0.000     0.000
   01/01/2000 04:10:00      0.000     0.000     0.000     0.000
   01/01/2000 04:15:00      0.000     0.000     0.000     0.000
   01/01/2000 04:20:00      0.000     0.000     0.000     0.000
   01/01/2000 04:25:00      0.000     0.000     0.000     0.000
   01/01/2000 04:30:00      0.000     0.000     0.000     0.000
   01/01/2000 04:35:00      0.000     0.000     0.000     0.000
   01/01/2000 04:40:00      0.000     0.000     0.000     0.000
   01/01/2000 04:45:00      0.000     0.000     0.000     0.000
   01/01/2000 04:50:00      0.000     0.000     0.000     0.000
   01/01/2000 04:55:00      0.000     0.000     0.000     0.000
   01/01/2000 05:00:00      0.000     0.000     0.000     0.000
   01/01/2000 05:05:00      0.000     0.000     0.000     0.000
   01/01/2000 05:10:00      0.000     0.000     0.000     0.000
   01/01/2000 05:15:00      0.000     0.000     0.000     0.000
   01/01/2000 05:20:00      0.000     0.000     0.000     0.000
   01/01/2000 05:25:00      0.000     0.000     0.000     0.000
   01/01/2000 05:30:00      0.000     0.000     0.000     0.000
   01/01/2000 05:35:00      0.000     0.000     0.000     0.000
   01/01/2000 05:40:00      0.000     0.000     0.000     0.000
   01/01/2000 05:45:00      0.000     0.000     0.000     0.000
   01/01/2000 05:50:00      0.000     0.000     0.000     0.000
   01/01/2000 05:55:00      0.000     0.000     0.000     0.000
   01/01/2000 06:00:00      0.000     0.000     0.000     0.000
   01/01/2000 06:05:00      0.000     0.000     0.000     0.000
   01/01/2000 06:10:00      0.000     0.000     0.000     0.000
   01/01/2000 06:15:00      0.000     0.000     0.000     0.000
   01/01/2000 06:20:00      0.000     0.000     0.000     0.000
   01/01/2000 06:25:00      0.000     0.000     0.000     0.000
   01/01/2000 06:30:00      0.000     0.000     0.000     0.000
   01/01/2000 06:35:00      0.000     0.000     0.000     0.000
   01/01/2000 06:40:00      0.000     0.000     0.000     0.000
   01/01/2000 06:45:00      0.000     0.000     0.000     0.000
   01/01/2000 06:50:00      0.000     0.000     0.000     0.000
   01/01/2000 06:55:00      0.000     0.000     0.000     0.000
   01/01/2000 07:00:00      0.000     0.000     0.000     0.000
   01/01/2000 07:05:00      0.000     0.000     0.000     0.000
   01/01/2000 07:10:00      0.000     0.000     0.000     0.000
   01/01/2000 07:15:00      0.000     0.000     0.000     0.000
   01/01/2000 07:20:00      0.000     0.000     0.000     0.000
   01/01/2000 07:25:00      0.000     0.000     0.000     0.000
   01/01/2000 07:30:00      0.000     0.000     0.000     0.000
   01/01/2000 07:35:00      0.000     0.000     0.000     0.000
   01/01/2000 07:40:00      0.000     0.000     0.000     0.000
   01/01/2000 07:45:00      0.000     0.000     0.000     0.000
   01/01/2000 07:50:00      0.000     0.000     0.000     0.000
   01/01/2000 07:55:00      0.000     0.000     0.000     0.000
   01/01/2000 08:00:00      0.000     0.000     0.000     0.000
   01/01/2000 08:05:00      0.000     0.000     0.000     0.000
   01/01/2000 08:10:00      0.000     0.000     0.000     0.000
   01/01/2000 08:15:00      0.000     0.000     0.000     0.000
   01/01/2000 08:20:00      0.000     0.000     0.000     0.000
   01/01/2000 08:25:00      0.000     0.000     0.000     0.000
   01/01/2000 08:30:00      0.000     0.000     0.000     0.000
   01/01/2000 08:35:00      0.000     0.000     0.000     0.000
   01/01/2000 08:40:00      0.000     0.000     0.000     0.000
   01/01/2000 08:45:00      0.000     0.000     0.000     0.000
   01/01/2000 08:50:00      0.000     0.000     0.000     0.000
   01/01/2000 08:55:00      0.000     0.000     0.000     0.000
   01/01/2000 09:00:00      0.000     0.000     0.000     0.000
   01/01/2000 09:05:00      0.000     0.000     0.000     0.000
   01/01/2000 09:10:00      0.000     0.000     0.000     0.000
   01/01/2000 09:15:00      0.000     0.000     0.000     0.000
   01/01/2000 09:20:00      0.000     0.000     0.000     0.000
   01/01/2000 09:25:00      0.000     0.000     0.000     0.000
   01/01/2000 09:30:00      0.000     0.000     0.000     0.000
   01/01/2000 09:35:00      0.000     0.000     0.000     0.000
   01/01/2000 09:40:00      0.000     0.000     0.000     0.000
   01/01/2000 09:45:00      0.000     0.000     0.000     0.000
   01/01/2000 09:50:00      0.000     0.000     0.000     0.000
   01/01/2000 09:55:00      0.000     0.000     0.000     0.000
   01/01/2000 10:00:00      0.000     0.000     0.000     0.000
   01/01/2000 10:05:00      0.000     0.000     0.000     0.000
   01/01/2000 10:10:00      0.000     0.000     0.000     0.000
   01/01/2000 10:15:00      0.000     0.000     0.000     0.000
   01/01/2000 10:20:00      0.000     0.000     0.000     0.000
   01/01/2000 10:25:00      0.000     0.000     0.000     0.000
   01/01/2000 10:30:00      0.000     0.000     0.000     0.000
   01/01/2000 10:35:00      0.000     0.000     0.000     0.000
   01/01/2000 10:40:00      0.000     0.000     0.000     0.000
   01/01/2000 10:45:00      0.000     0.000     0.000     0.000
   01/01/2000 10:50:00      0.000     0.000     0.000     0.000
   01/01/2000 10:55:00      0.000     0.000     0.000     0.000
   01/01/2000 11:00:00      0.000     0.000     0.000     0.000
   01/01/2000 11:05:00      0.000     0.000     0.000     0.000
   01/01/2000 11:10:00      0.000     0.000     0.000     0.000
   01/01/2000 11:15:00      0.000     0.000     0.000     0.000
   01/01/2000 11:20:00      0.000     0.000     0.000     0.000
   01/01/2000 11:25:00      0.000     0.000     0.000     0.000
   01/01/2000 11:30:00      0.000     0.000     0.000     0.000
   01/01/2000 11:35:00      0.000     0.000     0.000     0.000
   01/01/2000 11:40:00      0.000     0.000     0.000     0.000
   01/01/2000 11:45:00      0.000     0.000     0.000     0.000
   01/01/2000 11:50:00      0.000     0.000     0.000     0.000
   01/01/2000 11:55:00      0.000     0.000     0.000     0.000
   01/01/2000 12:00:00      0.000     0.000     0.000     0.000
   01/01/2000 12:05:00      0.000     0.000     0.000     0.000
   01/01/2000 12:10:00      0.000     0.000     0.000     0.000
   01/01/2000 12:15:00      0.000     0.000     0.000     0.000
   01/01/2000 12:20:00      0.000     0.000     0.000     0.000
   01/01/2000 12:25:00      0.000     0.000     0.000     0.000
   01/01/2000 12:30:00      0.000     0.000     0.000     0.000
   01/01/2000 12:35:00      0.000     0.000     0.000     0.000
   01/01/2000 12:40:00      0.000     0.000     0.000     0.000
   01/01/2000 12:45:00      0.000     0.000     0.000     0.000
   01/01/2000 12:50:00      0.000     0.000     0.000     0.000
   01/01/2000 12:55:00      0.000     0.000     0.000     0.000
   01/01/2000 13:00:00      0.000     0.000     0.000     0.000
   01/01/2000 13:05:00      0.000     0.000     0.000     0.000
   01/01/2000 13:10:00      0.000     0.000     0.000     0.000
   01/01/2000 13:15:00      0.000     0.000     0.000     0.000
   01/01/2000 13:20:00      0.000     0.000     0.000     0.000
   01/01/2000 13:25:00      0.000     0.000     0.000     0.000
   01/01/2000 13:30:00      0.000     0.000     0.000     0.000
   01/01/2000 13:35:00      0.000     0.000     0.000     0.000
   01/01/2000 13:40:00      0.000     0.000     0.000     0.000
   01/01/2000 13:45:00      0.000     0.000     0.000     0.000
   01/01/2000 13:50:00      0.000     0.000     0.000     0.000
   01/01/2000 13:55:00      0.000     0.000     0.000     0.000
   01/01/2000 14:00:00      0.000     0.000     0.000     0.000
   01/01/2000 14:05:00      0.000     0.000     0.000     0.000
   01/01/2000 14:10:00      0.000     0.000     0.000     0.000
   01/01/2000 14:15:00      0.000     0.000     0.000     0.000
   01/01/2000 14:20:00      0.000     0.000     0.000     0.000
   01/01/2000 14:25:00      0.000     0.000     0.000     0.000
   01/01/2000 14:30:00      0.000     0.000     0.000     0.000
   01/01/2000 14:35:00      0.000     0.000     0.000     0.000
   01/01/2000 14:40:00      0.000     0.000     0.000     0.000
   01/01/2000 14:45:00      0.000     0.000     0.000     0.000
   01/01/2000 14:50:00      0.000     0.000     0.000     0.000
   01/01/2000 14:55:00      0.000     0.000     0.000     0.000
   01/01/2000 15:00:00      0.000     0.000     0.000     0.000
   01/01/2000 15:05:00      0.000     0.000     0.000     0.000
   01/01/2000 15:10:00      0.000     0.000     0.000     0.000
   01/01/2000 15:15:00      0.000     0.000     0.000     0.000
   01/01/2000 15:20:00      0.000     0.000     0.000     0.000
   01/01/2000 15:25:00      0.000     0.000     0.000     0.000
   01/01/2000 15:30:00      0.000     0.000     0.000     0.000
   01/01/2000 15:35:00      0.000     0.000     0.000     0.000
   01/01/2000 15:40:00      0.000     0.000     0.000     0.000
   01/01/2000 15:45:00      0.000     0.000     0.000     0.000
   01/01/2000 15:50:00      0.000     0.000     0.000     0.000
   01/01/2000 15:55:00      0.000     0.000     0.000     0.000
   01/01/2000 16:00:00      0.000     0.000     0.000     0.000
   01/01/2000 16:05:00      0.000     0.000     0.000     0.000
   01/01/2000 16:10:00      0.000     0.000     0.000     0.000
   01/01/2000 16:15:00      0.000     0.000     0.000     0.000
   01/01/2000 16:20:00      0.000     0.000     0.000     0.000
   01/01/2000 16:25:00      0.000     0.000     0.000     0.000
   01/01/2000 16:30:00      0.000     0.000     0.000     0.000
   01/01/2000 16:35:00      0.000     0.000     0.000     0.000
   01/01/2000 16:40:00      0.000     0.000     0.000     0.000
   01/01/2000 16:45:00      0.000     0.000     0.000     0.000
   01/01/2000 16:50:00      0.000     0.000     0.000     0.000
   01/01/2000 16:55:00      0.000     0.000     0.000     0.000
   01/01/2000 17:00:00      0.000     0.000     0.000     0.000
   01/01/2000 17:05:00      0.000     0.000     0.000     0.000
   01/01/2000 17:10:00      0.000     0.000     0.000     0.000
   01/01/2000 17:15:00      0.000     0.000     0.000     0.000
   01/01/2000 17:20:00      0.000     0.000     0.000     0.000
   01/01/2000 17:25:00      0.000     0.000     0.000     0.000
   01/01/2000 17:30:00      0.000     0.000     0.000     0.000
   01/01/2000 17:35:00      0.000     0.000     0.000     0.000
   01/01/2000 17:40:00      0.000     0.000     0.000     0.000
   01/01/2000 17:45:00      0.000     0.000     0.000     0.000
   01/01/2000 17:50:00      0.000     0.000     0.000     0.000
   01/01/2000 17:55:00      0.000     0.000     0.000     0.000
   01/01/2000 18:00:00      0.000     0.000     0.000     0.000
   01/01/2000 18:05:00      0.000     0.000     0.000     0.000
   01/01/2000 18:10:00      0.000     0.000     0.000     0.000
   01/01/2000 18:15:00      0.000     0.000     0.000     0.000
   01/01/2000 18:20:00      0.000     0.000     0.000     0.000
   01/01/2000 18:25:00      0.000     0.000     0.000     0.000
   01/01/2000 18:30:00      0.000     0.000     0.000     0.000
   01/01/2000 18:35:00      0.000     0.000     0.000     0.000
   01/01/2000 18:40:00      0.000     0.000     0.000     0.000
   01/01/2000 18:45:00      0.000     0.000     0.000     0.000
   01/01/2000 18:50:00      0.000     0.000     0.000     0.000
   01/01/2000 18:55:00      0.000     0.000     0.000     0.000
   01/01/2000 19:00:00      0.000     0.000     0.000     0.000
   01/01/2000 19:05:00      0.000     0.000     0.000     0.000
   01/01/2000 19:10:00      0.000     0.000     0.000     0.000
   01/01/2000 19:15:00      0.000     0.000     0.000     0.000
   01/01/2000 19:20:00      0.000     0.000     0.000     0.000
   01/01/2000 19:25:00      0.000     0.000     0.000     0.000
   01/01/2000 19:30:00      0.000     0.000     0.000     0.000
   01/01/2000 19:35:00      0.000     0.000     0.000     0.000
   01/01/2000 19:40:00      0.000     0.000     0.000     0.000
   01/01/2000 19:45:00      0.000     0.000     0.000     0.000
   01/01/2000 19:50:00      0.000     0.000     0.000     0.000
   01/01/2000 19:55:00      0.000     0.000     0.000     0.000
   01/01/2000 20:00:00      0.000     0.000     0.000     0.000
   01/01/2000 20:05:00      0.000     0.000     0.000     0.000
   01/01/2000 20:10:00      0.000     0.000     0.000     0.000
   01/01/2000 20:15:00      0.000     0.000     0.000     0.000
   01/01/2000 20:20:00      0.000     0.000     0.000     0.000
   01/01/2000 20:25:00      0.000     0.000     0.000     0.000
   01/01/2000 20:30:00      0.000     0.000     0.000     0.000
   01/01/2000 20:35:00      0.000     0.000     0.000     0.000
   01/01/2000 20:40:00      0.000     0.000     0.000     0.000
   01/01/2000 20:45:00      0.000     0.000     0.000     0.000
   01/01/2000 20:50:00      0.000     0.000     0.000     0.000
   01/01/2000 20:55:00      0.000     0.000     0.000     0.000
   01/01/2000 21:00:00      0.000     0.000     0.000     0.000
   01/01/2000 21:05:00      0.000     0.000     0.000     0.000
   01/01/2000 21:10:00      0.000     0.000     0.000     0.000
   01/01/2000 21:15:00      0.000     0.000     0.000     0.000
   01/01/2000 21:20:00      0.000     0.000     0.000     0.000
   01/01/2000 21:25:00      0.000     0.000     0.000     0.000
   01/01/2000 21:30:00      0.000     0.000     0.000     0.000
   01/01/2000 21:35:00      0.000     0.000     0.000     0.000
   01/01/2000 21:40:00      0.000     0.000     0.000     0.000
   01/01/2000 21:45:00      0.000     0.000     0.000     0.000
   01/01/2000 21:50:00      0.000     0.000     0.000     0.000
   01/01/2000 21:55:00      0.000     0.000     0.000     0.000
  

  Analysis begun on:  Mon Feb 10 11:43:46 2020
  Analysis ended on:  Mon Feb 10 11:43:46 2020
  Total elapsed time: < 1 sec