
  EPA STORM WATER MANAGEMENT MODEL - VERSION 5.1 (Build 5.1.013)
  --------------------------------------------------------------

  
  *********************************************************
  NOTE: The summary statistics displayed in this report are
  based on results found at every computational time step,  
  not just on results from each reporting time step.
  *********************************************************
  
  ****************
  Analysis Options
  ****************
  Flow Units ............... CMS
  Process Models:
    Rainfall/Runoff ........ YES
    RDII ................... NO
    Snowmelt ............... NO
    Groundwater ............ NO
    Flow Routing ........... YES
    Ponding Allowed ........ NO
    Water Quality .......... NO
  Infiltration Method ...... MODIFIED_GREEN_AMPT
  Flow Routing Method ...... KINWAVE
  Starting Date ............ 08/01/2018 00:00:00
  Ending Date .............. 11/01/2018 00:00:00
  Antecedent Dry Days ...... 0.0
  Report Time Step ......... 00:15:00
  Wet Time Step ............ 00:05:00
  Dry Time Step ............ 01:00:00
  Routing Time Step ........ 30.00 sec
  
  
  **************************        Volume         Depth
  Runoff Quantity Continuity     hectare-m            mm
  **************************     ---------       -------
  Total Precipitation ......           nan           nan
  Evaporation Loss .........         0.000         0.000
  Infiltration Loss ........           nan           nan
  Surface Runoff ...........       367.718       110.773
  Final Storage ............           nan           nan
  Continuity Error (%) .....         0.000
  
  
  **************************        Volume        Volume
  Flow Routing Continuity        hectare-m      10^6 ltr
  **************************     ---------     ---------
  Dry Weather Inflow .......         0.000         0.000
  Wet Weather Inflow .......       367.718      3677.215
  Groundwater Inflow .......         0.000         0.000
  RDII Inflow ..............         0.000         0.000
  External Inflow ..........         0.000         0.000
  External Outflow .........       367.718      3677.215
  Flooding Loss ............         0.000         0.000
  Evaporation Loss .........         0.000         0.000
  Exfiltration Loss ........         0.000         0.000
  Initial Stored Volume ....         0.000         0.000
  Final Stored Volume ......         0.000         0.000
  Continuity Error (%) .....         0.000
  
  
  ********************************
  Highest Flow Instability Indexes
  ********************************
  All links are stable.
  
  
  *************************
  Routing Time Step Summary
  *************************
  Minimum Time Step           :    30.00 sec
  Average Time Step           :    30.00 sec
  Maximum Time Step           :    30.00 sec
  Percent in Steady State     :     0.00
  Average Iterations per Step :     1.00
  Percent Not Converging      :     0.00
  
  
  ***************************
  Subcatchment Runoff Summary
  ***************************
  
  ------------------------------------------------------------------------------------------------------------------------------
                            Total      Total      Total      Total     Imperv       Perv      Total       Total     Peak  Runoff
                           Precip      Runon       Evap      Infil     Runoff     Runoff     Runoff      Runoff   Runoff   Coeff
  Subcatchment                 mm         mm         mm         mm         mm         mm         mm    10^6 ltr      CMS
  ------------------------------------------------------------------------------------------------------------------------------
  sc_2                        nan       0.00       0.00        nan     110.76       0.01     110.77     3677.20    27.81     nan
  
  
  ******************
  Node Depth Summary
  ******************
  
  ---------------------------------------------------------------------------------
                                 Average  Maximum  Maximum  Time of Max    Reported
                                   Depth    Depth      HGL   Occurrence   Max Depth
  Node                 Type       Meters   Meters   Meters  days hr:min      Meters
  ---------------------------------------------------------------------------------
  node_1               JUNCTION     0.00     0.00   154.12     0  00:00        0.00
  node_2               OUTFALL      0.00     0.00    78.99     0  00:00        0.00
  
  
  *******************
  Node Inflow Summary
  *******************
  
  -------------------------------------------------------------------------------------------------
                                  Maximum  Maximum                  Lateral       Total        Flow
                                  Lateral    Total  Time of Max      Inflow      Inflow     Balance
                                   Inflow   Inflow   Occurrence      Volume      Volume       Error
  Node                 Type           CMS      CMS  days hr:min    10^6 ltr    10^6 ltr     Percent
  -------------------------------------------------------------------------------------------------
  node_1               JUNCTION     0.000    0.000     0  00:00           0           0       0.000 ltr
  node_2               OUTFALL     27.813   27.813    20  16:45    3.68e+03    3.68e+03       0.000
  
  
  *********************
  Node Flooding Summary
  *********************
  
  No nodes were flooded.
  
  
  ***********************
  Outfall Loading Summary
  ***********************
  
  -----------------------------------------------------------
                         Flow       Avg       Max       Total
                         Freq      Flow      Flow      Volume
  Outfall Node           Pcnt       CMS       CMS    10^6 ltr
  -----------------------------------------------------------
  node_2                91.24     0.507    27.813    3677.198
  -----------------------------------------------------------
  System                91.24     0.507    27.813    3677.198
  
  
  ********************
  Link Flow Summary
  ********************
  
  -----------------------------------------------------------------------------
                                 Maximum  Time of Max   Maximum    Max/    Max/
                                  |Flow|   Occurrence   |Veloc|    Full    Full
  Link                 Type          CMS  days hr:min     m/sec    Flow   Depth
  -----------------------------------------------------------------------------
  chnl_1               CONDUIT     0.000     0  00:00      0.00    0.00    0.00
  
  
  *************************
  Conduit Surcharge Summary
  *************************
  
  No conduits were surcharged.
  
  
  ************
  Node Results
  ************
  
  <<< Node node_2 >>>
  ----------------------------------------------------------------
                           Inflow  Flooding     Depth      Head
  Date        Time            CMS       CMS    meters    meters
  ----------------------------------------------------------------
   08/01/2018 00:15:00      0.000     0.000     0.000    78.995
   08/01/2018 00:30:00      0.000     0.000     0.000    78.995
   08/01/2018 00:45:00      0.000     0.000     0.000    78.995
   08/01/2018 01:00:00      0.000     0.000     0.000    78.995
   08/01/2018 01:15:00      0.000     0.000     0.000    78.995
   08/01/2018 01:30:00      0.000     0.000     0.000    78.995
   08/01/2018 01:45:00      0.000     0.000     0.000    78.995
   08/01/2018 02:00:00      0.000     0.000     0.000    78.995
   08/01/2018 02:15:00      0.000     0.000     0.000    78.995
   08/01/2018 02:30:00      0.000     0.000     0.000    78.995
   08/01/2018 02:45:00      0.000     0.000     0.000    78.995
   08/01/2018 03:00:00      0.000     0.000     0.000    78.995
   08/01/2018 03:15:00      0.000     0.000     0.000    78.995
   08/01/2018 03:30:00      0.000     0.000     0.000    78.995
   08/01/2018 03:45:00      0.000     0.000     0.000    78.995
   08/01/2018 04:00:00      0.000     0.000     0.000    78.995
   08/01/2018 04:15:00      0.000     0.000     0.000    78.995
   08/01/2018 04:30:00      0.000     0.000     0.000    78.995
   08/01/2018 04:45:00      0.000     0.000     0.000    78.995
   08/01/2018 05:00:00      0.000     0.000     0.000    78.995
   08/01/2018 05:15:00      0.000     0.000     0.000    78.995
   08/01/2018 05:30:00      0.000     0.000     0.000    78.995
   08/01/2018 05:45:00      0.000     0.000     0.000    78.995
   08/01/2018 06:00:00      0.000     0.000     0.000    78.995
   08/01/2018 06:15:00      0.000     0.000     0.000    78.995
   08/01/2018 06:30:00      0.000     0.000     0.000    78.995
   08/01/2018 06:45:00      0.000     0.000     0.000    78.995
   08/01/2018 07:00:00      0.000     0.000     0.000    78.995
   08/01/2018 07:15:00      0.000     0.000     0.000    78.995
   08/01/2018 07:30:00      0.000     0.000     0.000    78.995
   08/01/2018 07:45:00      0.000     0.000     0.000    78.995
   08/01/2018 08:00:00      0.000     0.000     0.000    78.995
   08/01/2018 08:15:00      0.000     0.000     0.000    78.995
   08/01/2018 08:30:00      0.000     0.000     0.000    78.995
   08/01/2018 08:45:00      0.000     0.000     0.000    78.995
   08/01/2018 09:00:00      0.000     0.000     0.000    78.995
   08/01/2018 09:15:00      0.000     0.000     0.000    78.995
   08/01/2018 09:30:00      0.000     0.000     0.000    78.995
   08/01/2018 09:45:00      0.000     0.000     0.000    78.995
   08/01/2018 10:00:00      0.000     0.000     0.000    78.995
   08/01/2018 10:15:00      0.000     0.000     0.000    78.995
   08/01/2018 10:30:00      0.000     0.000     0.000    78.995
   08/01/2018 10:45:00      0.000     0.000     0.000    78.995
   08/01/2018 11:00:00      0.000     0.000     0.000    78.995
   08/01/2018 11:15:00      0.000     0.000     0.000    78.995
   08/01/2018 11:30:00      0.000     0.000     0.000    78.995
   08/01/2018 11:45:00      0.000     0.000     0.000    78.995
   08/01/2018 12:00:00      0.000     0.000     0.000    78.995
   08/01/2018 12:15:00      0.000     0.000     0.000    78.995
   08/01/2018 12:30:00      0.000     0.000     0.000    78.995
   08/01/2018 12:45:00      0.000     0.000     0.000    78.995
   08/01/2018 13:00:00      0.000     0.000     0.000    78.995
   08/01/2018 13:15:00      0.000     0.000     0.000    78.995
   08/01/2018 13:30:00      0.000     0.000     0.000    78.995
   08/01/2018 13:45:00      0.000     0.000     0.000    78.995
   08/01/2018 14:00:00      0.000     0.000     0.000    78.995
   08/01/2018 14:15:00      0.000     0.000     0.000    78.995
   08/01/2018 14:30:00      0.000     0.000     0.000    78.995
   08/01/2018 14:45:00      0.000     0.000     0.000    78.995
   08/01/2018 15:00:00      0.000     0.000     0.000    78.995
   08/01/2018 15:15:00      0.000     0.000     0.000    78.995
   08/01/2018 15:30:00      0.000     0.000     0.000    78.995
   08/01/2018 15:45:00      0.000     0.000     0.000    78.995
   08/01/2018 16:00:00      0.000     0.000     0.000    78.995
   08/01/2018 16:15:00      0.000     0.000     0.000    78.995
   08/01/2018 16:30:00      0.000     0.000     0.000    78.995
   08/01/2018 16:45:00      0.000     0.000     0.000    78.995
   08/01/2018 17:00:00      0.000     0.000     0.000    78.995
   08/01/2018 17:15:00      0.000     0.000     0.000    78.995
   08/01/2018 17:30:00      0.000     0.000     0.000    78.995
   08/01/2018 17:45:00      0.000     0.000     0.000    78.995
   08/01/2018 18:00:00      0.000     0.000     0.000    78.995
   08/01/2018 18:15:00      0.000     0.000     0.000    78.995
   08/01/2018 18:30:00      0.000     0.000     0.000    78.995
   08/01/2018 18:45:00      0.000     0.000     0.000    78.995
   08/01/2018 19:00:00      0.000     0.000     0.000    78.995
   08/01/2018 19:15:00      0.000     0.000     0.000    78.995
   08/01/2018 19:30:00      0.000     0.000     0.000    78.995
   08/01/2018 19:45:00      0.000     0.000     0.000    78.995
   08/01/2018 20:00:00      0.000     0.000     0.000    78.995
   08/01/2018 20:15:00      0.000     0.000     0.000    78.995
   08/01/2018 20:30:00      0.000     0.000     0.000    78.995
   08/01/2018 20:45:00      0.000     0.000     0.000    78.995
   08/01/2018 21:00:00      0.000     0.000     0.000    78.995
   08/01/2018 21:15:00      0.000     0.000     0.000    78.995
   08/01/2018 21:30:00      0.000     0.000     0.000    78.995
   08/01/2018 21:45:00      0.000     0.000     0.000    78.995
   08/01/2018 22:00:00      0.000     0.000     0.000    78.995
   08/01/2018 22:15:00      0.000     0.000     0.000    78.995
   08/01/2018 22:30:00      0.000     0.000     0.000    78.995
   08/01/2018 22:45:00      0.000     0.000     0.000    78.995
   08/01/2018 23:00:00      0.000     0.000     0.000    78.995
   08/01/2018 23:15:00      0.000     0.000     0.000    78.995
   08/01/2018 23:30:00      0.000     0.000     0.000    78.995
   08/01/2018 23:45:00      0.000     0.000     0.000    78.995
   08/02/2018 00:00:00      0.000     0.000     0.000    78.995
   08/02/2018 00:15:00      0.000     0.000     0.000    78.995
   08/02/2018 00:30:00      0.000     0.000     0.000    78.995
   08/02/2018 00:45:00      0.000     0.000     0.000    78.995
   08/02/2018 01:00:00      0.000     0.000     0.000    78.995
   08/02/2018 01:15:00      0.000     0.000     0.000    78.995
   08/02/2018 01:30:00      0.000     0.000     0.000    78.995
   08/02/2018 01:45:00      0.000     0.000     0.000    78.995
   08/02/2018 02:00:00      0.000     0.000     0.000    78.995
   08/02/2018 02:15:00      0.000     0.000     0.000    78.995
   08/02/2018 02:30:00      0.000     0.000     0.000    78.995
   08/02/2018 02:45:00      0.000     0.000     0.000    78.995
   08/02/2018 03:00:00      0.000     0.000     0.000    78.995
   08/02/2018 03:15:00      0.000     0.000     0.000    78.995
   08/02/2018 03:30:00      0.000     0.000     0.000    78.995
   08/02/2018 03:45:00      0.000     0.000     0.000    78.995
   08/02/2018 04:00:00      0.000     0.000     0.000    78.995
   08/02/2018 04:15:00      0.000     0.000     0.000    78.995
   08/02/2018 04:30:00      0.000     0.000     0.000    78.995
   08/02/2018 04:45:00      0.000     0.000     0.000    78.995
   08/02/2018 05:00:00      0.000     0.000     0.000    78.995
   08/02/2018 05:15:00      0.000     0.000     0.000    78.995
   08/02/2018 05:30:00      0.000     0.000     0.000    78.995
   08/02/2018 05:45:00      0.000     0.000     0.000    78.995
   08/02/2018 06:00:00      0.000     0.000     0.000    78.995
   08/02/2018 06:15:00      0.000     0.000     0.000    78.995
   08/02/2018 06:30:00      0.000     0.000     0.000    78.995
   08/02/2018 06:45:00      0.000     0.000     0.000    78.995
   08/02/2018 07:00:00      0.000     0.000     0.000    78.995
   08/02/2018 07:15:00      0.000     0.000     0.000    78.995
   08/02/2018 07:30:00      0.000     0.000     0.000    78.995
   08/02/2018 07:45:00      0.000     0.000     0.000    78.995
   08/02/2018 08:00:00      0.000     0.000     0.000    78.995
   08/02/2018 08:15:00      0.000     0.000     0.000    78.995
   08/02/2018 08:30:00      0.000     0.000     0.000    78.995
   08/02/2018 08:45:00      0.000     0.000     0.000    78.995
   08/02/2018 09:00:00      0.000     0.000     0.000    78.995
   08/02/2018 09:15:00      0.000     0.000     0.000    78.995
   08/02/2018 09:30:00      0.000     0.000     0.000    78.995
   08/02/2018 09:45:00      0.000     0.000     0.000    78.995
   08/02/2018 10:00:00      0.000     0.000     0.000    78.995
   08/02/2018 10:15:00      0.000     0.000     0.000    78.995
   08/02/2018 10:30:00      0.000     0.000     0.000    78.995
   08/02/2018 10:45:00      0.000     0.000     0.000    78.995
   08/02/2018 11:00:00      0.000     0.000     0.000    78.995
   08/02/2018 11:15:00      0.000     0.000     0.000    78.995
   08/02/2018 11:30:00      0.000     0.000     0.000    78.995
   08/02/2018 11:45:00      0.000     0.000     0.000    78.995
   08/02/2018 12:00:00      0.000     0.000     0.000    78.995
   08/02/2018 12:15:00      0.000     0.000     0.000    78.995
   08/02/2018 12:30:00      0.000     0.000     0.000    78.995
   08/02/2018 12:45:00      0.000     0.000     0.000    78.995
   08/02/2018 13:00:00      0.000     0.000     0.000    78.995
   08/02/2018 13:15:00      0.000     0.000     0.000    78.995
   08/02/2018 13:30:00      0.000     0.000     0.000    78.995
   08/02/2018 13:45:00      0.000     0.000     0.000    78.995
   08/02/2018 14:00:00      0.000     0.000     0.000    78.995
   08/02/2018 14:15:00      0.000     0.000     0.000    78.995
   08/02/2018 14:30:00      0.000     0.000     0.000    78.995
   08/02/2018 14:45:00      0.000     0.000     0.000    78.995
   08/02/2018 15:00:00      0.000     0.000     0.000    78.995
   08/02/2018 15:15:00      0.000     0.000     0.000    78.995
   08/02/2018 15:30:00      0.000     0.000     0.000    78.995
   08/02/2018 15:45:00      0.000     0.000     0.000    78.995
   08/02/2018 16:00:00      0.000     0.000     0.000    78.995
   08/02/2018 16:15:00      0.000     0.000     0.000    78.995
   08/02/2018 16:30:00      0.000     0.000     0.000    78.995
   08/02/2018 16:45:00      0.000     0.000     0.000    78.995
   08/02/2018 17:00:00      0.000     0.000     0.000    78.995
   08/02/2018 17:15:00      0.000     0.000     0.000    78.995
   08/02/2018 17:30:00      0.000     0.000     0.000    78.995
   08/02/2018 17:45:00      0.000     0.000     0.000    78.995
   08/02/2018 18:00:00      0.000     0.000     0.000    78.995
   08/02/2018 18:15:00      0.000     0.000     0.000    78.995
   08/02/2018 18:30:00      0.000     0.000     0.000    78.995
   08/02/2018 18:45:00      0.000     0.000     0.000    78.995
   08/02/2018 19:00:00      0.000     0.000     0.000    78.995
   08/02/2018 19:15:00      0.000     0.000     0.000    78.995
   08/02/2018 19:30:00      0.000     0.000     0.000    78.995
   08/02/2018 19:45:00      0.000     0.000     0.000    78.995
   08/02/2018 20:00:00      0.000     0.000     0.000    78.995
   08/02/2018 20:15:00      0.000     0.000     0.000    78.995
   08/02/2018 20:30:00      0.000     0.000     0.000    78.995
   08/02/2018 20:45:00      0.000     0.000     0.000    78.995
   08/02/2018 21:00:00      0.000     0.000     0.000    78.995
   08/02/2018 21:15:00      0.000     0.000     0.000    78.995
   08/02/2018 21:30:00      0.000     0.000     0.000    78.995
   08/02/2018 21:45:00      0.000     0.000     0.000    78.995
   08/02/2018 22:00:00      0.000     0.000     0.000    78.995
   08/02/2018 22:15:00      0.000     0.000     0.000    78.995
   08/02/2018 22:30:00      0.000     0.000     0.000    78.995
   08/02/2018 22:45:00      0.000     0.000     0.000    78.995
   08/02/2018 23:00:00      0.000     0.000     0.000    78.995
   08/02/2018 23:15:00      0.000     0.000     0.000    78.995
   08/02/2018 23:30:00      0.000     0.000     0.000    78.995
   08/02/2018 23:45:00      0.000     0.000     0.000    78.995
   08/03/2018 00:00:00      0.000     0.000     0.000    78.995
   08/03/2018 00:15:00      0.000     0.000     0.000    78.995
   08/03/2018 00:30:00      0.000     0.000     0.000    78.995
   08/03/2018 00:45:00      0.000     0.000     0.000    78.995
   08/03/2018 01:00:00      0.000     0.000     0.000    78.995
   08/03/2018 01:15:00      0.000     0.000     0.000    78.995
   08/03/2018 01:30:00      0.000     0.000     0.000    78.995
   08/03/2018 01:45:00      0.000     0.000     0.000    78.995
   08/03/2018 02:00:00      0.000     0.000     0.000    78.995
   08/03/2018 02:15:00      0.000     0.000     0.000    78.995
   08/03/2018 02:30:00      0.000     0.000     0.000    78.995
   08/03/2018 02:45:00      0.000     0.000     0.000    78.995
   08/03/2018 03:00:00      0.000     0.000     0.000    78.995
   08/03/2018 03:15:00      0.000     0.000     0.000    78.995
   08/03/2018 03:30:00      0.000     0.000     0.000    78.995
   08/03/2018 03:45:00      0.000     0.000     0.000    78.995
   08/03/2018 04:00:00      0.000     0.000     0.000    78.995
   08/03/2018 04:15:00      0.000     0.000     0.000    78.995
   08/03/2018 04:30:00      0.000     0.000     0.000    78.995
   08/03/2018 04:45:00      0.000     0.000     0.000    78.995
   08/03/2018 05:00:00      0.000     0.000     0.000    78.995
   08/03/2018 05:15:00      0.000     0.000     0.000    78.995
   08/03/2018 05:30:00      0.000     0.000     0.000    78.995
   08/03/2018 05:45:00      0.000     0.000     0.000    78.995
   08/03/2018 06:00:00      0.000     0.000     0.000    78.995
   08/03/2018 06:15:00      0.000     0.000     0.000    78.995
   08/03/2018 06:30:00      0.000     0.000     0.000    78.995
   08/03/2018 06:45:00      0.000     0.000     0.000    78.995
   08/03/2018 07:00:00      0.000     0.000     0.000    78.995
   08/03/2018 07:15:00      0.000     0.000     0.000    78.995
   08/03/2018 07:30:00      0.000     0.000     0.000    78.995
   08/03/2018 07:45:00      0.000     0.000     0.000    78.995
   08/03/2018 08:00:00      0.000     0.000     0.000    78.995
   08/03/2018 08:15:00      0.000     0.000     0.000    78.995
   08/03/2018 08:30:00      0.000     0.000     0.000    78.995
   08/03/2018 08:45:00      0.000     0.000     0.000    78.995
   08/03/2018 09:00:00      0.000     0.000     0.000    78.995
   08/03/2018 09:15:00      0.000     0.000     0.000    78.995
   08/03/2018 09:30:00      0.000     0.000     0.000    78.995
   08/03/2018 09:45:00      0.000     0.000     0.000    78.995
   08/03/2018 10:00:00      0.000     0.000     0.000    78.995
   08/03/2018 10:15:00      0.000     0.000     0.000    78.995
   08/03/2018 10:30:00      0.000     0.000     0.000    78.995
   08/03/2018 10:45:00      0.000     0.000     0.000    78.995
   08/03/2018 11:00:00      0.000     0.000     0.000    78.995
   08/03/2018 11:15:00      0.000     0.000     0.000    78.995
   08/03/2018 11:30:00      0.000     0.000     0.000    78.995
   08/03/2018 11:45:00      0.000     0.000     0.000    78.995
   08/03/2018 12:00:00      0.000     0.000     0.000    78.995
   08/03/2018 12:15:00      0.000     0.000     0.000    78.995
   08/03/2018 12:30:00      0.000     0.000     0.000    78.995
   08/03/2018 12:45:00      0.000     0.000     0.000    78.995
   08/03/2018 13:00:00      0.000     0.000     0.000    78.995
   08/03/2018 13:15:00      0.000     0.000     0.000    78.995
   08/03/2018 13:30:00      0.000     0.000     0.000    78.995
   08/03/2018 13:45:00      0.000     0.000     0.000    78.995
   08/03/2018 14:00:00      0.000     0.000     0.000    78.995
   08/03/2018 14:15:00      0.000     0.000     0.000    78.995
   08/03/2018 14:30:00      0.000     0.000     0.000    78.995
   08/03/2018 14:45:00      0.000     0.000     0.000    78.995
   08/03/2018 15:00:00      0.000     0.000     0.000    78.995
   08/03/2018 15:15:00      0.000     0.000     0.000    78.995
   08/03/2018 15:30:00      0.000     0.000     0.000    78.995
   08/03/2018 15:45:00      0.000     0.000     0.000    78.995
   08/03/2018 16:00:00      0.000     0.000     0.000    78.995
   08/03/2018 16:15:00      0.000     0.000     0.000    78.995
   08/03/2018 16:30:00      0.000     0.000     0.000    78.995
   08/03/2018 16:45:00      0.000     0.000     0.000    78.995
   08/03/2018 17:00:00      0.000     0.000     0.000    78.995
   08/03/2018 17:15:00      0.000     0.000     0.000    78.995
   08/03/2018 17:30:00      0.000     0.000     0.000    78.995
   08/03/2018 17:45:00      0.000     0.000     0.000    78.995
   08/03/2018 18:00:00      0.000     0.000     0.000    78.995
   08/03/2018 18:15:00      0.000     0.000     0.000    78.995
   08/03/2018 18:30:00      0.000     0.000     0.000    78.995
   08/03/2018 18:45:00      0.000     0.000     0.000    78.995
   08/03/2018 19:00:00      0.000     0.000     0.000    78.995
   08/03/2018 19:15:00      0.000     0.000     0.000    78.995
   08/03/2018 19:30:00      0.000     0.000     0.000    78.995
   08/03/2018 19:45:00      0.000     0.000     0.000    78.995
   08/03/2018 20:00:00      0.000     0.000     0.000    78.995
   08/03/2018 20:15:00      0.000     0.000     0.000    78.995
   08/03/2018 20:30:00      0.000     0.000     0.000    78.995
   08/03/2018 20:45:00      0.000     0.000     0.000    78.995
   08/03/2018 21:00:00      0.000     0.000     0.000    78.995
   08/03/2018 21:15:00      0.000     0.000     0.000    78.995
   08/03/2018 21:30:00      0.000     0.000     0.000    78.995
   08/03/2018 21:45:00      0.000     0.000     0.000    78.995
   08/03/2018 22:00:00      0.000     0.000     0.000    78.995
   08/03/2018 22:15:00      0.000     0.000     0.000    78.995
   08/03/2018 22:30:00      0.000     0.000     0.000    78.995
   08/03/2018 22:45:00      0.000     0.000     0.000    78.995
   08/03/2018 23:00:00      0.000     0.000     0.000    78.995
   08/03/2018 23:15:00      0.000     0.000     0.000    78.995
   08/03/2018 23:30:00      0.000     0.000     0.000    78.995
   08/03/2018 23:45:00      0.000     0.000     0.000    78.995
   08/04/2018 00:00:00      0.000     0.000     0.000    78.995
   08/04/2018 00:15:00      0.000     0.000     0.000    78.995
   08/04/2018 00:30:00      0.000     0.000     0.000    78.995
   08/04/2018 00:45:00      0.000     0.000     0.000    78.995
   08/04/2018 01:00:00      0.000     0.000     0.000    78.995
   08/04/2018 01:15:00      0.000     0.000     0.000    78.995
   08/04/2018 01:30:00      0.000     0.000     0.000    78.995
   08/04/2018 01:45:00      0.000     0.000     0.000    78.995
   08/04/2018 02:00:00      0.000     0.000     0.000    78.995
   08/04/2018 02:15:00      0.000     0.000     0.000    78.995
   08/04/2018 02:30:00      0.000     0.000     0.000    78.995
   08/04/2018 02:45:00      0.000     0.000     0.000    78.995
   08/04/2018 03:00:00      0.000     0.000     0.000    78.995
   08/04/2018 03:15:00      0.000     0.000     0.000    78.995
   08/04/2018 03:30:00      0.000     0.000     0.000    78.995
   08/04/2018 03:45:00      0.000     0.000     0.000    78.995
   08/04/2018 04:00:00      0.000     0.000     0.000    78.995
   08/04/2018 04:15:00      0.000     0.000     0.000    78.995
   08/04/2018 04:30:00      0.000     0.000     0.000    78.995
   08/04/2018 04:45:00      0.000     0.000     0.000    78.995
   08/04/2018 05:00:00      0.000     0.000     0.000    78.995
   08/04/2018 05:15:00      0.000     0.000     0.000    78.995
   08/04/2018 05:30:00      0.000     0.000     0.000    78.995
   08/04/2018 05:45:00      0.000     0.000     0.000    78.995
   08/04/2018 06:00:00      0.000     0.000     0.000    78.995
   08/04/2018 06:15:00      0.000     0.000     0.000    78.995
   08/04/2018 06:30:00      0.000     0.000     0.000    78.995
   08/04/2018 06:45:00      0.000     0.000     0.000    78.995
   08/04/2018 07:00:00      0.000     0.000     0.000    78.995
   08/04/2018 07:15:00      0.000     0.000     0.000    78.995
   08/04/2018 07:30:00      0.000     0.000     0.000    78.995
   08/04/2018 07:45:00      0.000     0.000     0.000    78.995
   08/04/2018 08:00:00      0.000     0.000     0.000    78.995
   08/04/2018 08:15:00      0.000     0.000     0.000    78.995
   08/04/2018 08:30:00      0.000     0.000     0.000    78.995
   08/04/2018 08:45:00      0.000     0.000     0.000    78.995
   08/04/2018 09:00:00      0.000     0.000     0.000    78.995
   08/04/2018 09:15:00      0.000     0.000     0.000    78.995
   08/04/2018 09:30:00      0.000     0.000     0.000    78.995
   08/04/2018 09:45:00      0.000     0.000     0.000    78.995
   08/04/2018 10:00:00      0.000     0.000     0.000    78.995
   08/04/2018 10:15:00      0.000     0.000     0.000    78.995
   08/04/2018 10:30:00      0.000     0.000     0.000    78.995
   08/04/2018 10:45:00      0.000     0.000     0.000    78.995
   08/04/2018 11:00:00      0.000     0.000     0.000    78.995
   08/04/2018 11:15:00      0.000     0.000     0.000    78.995
   08/04/2018 11:30:00      0.000     0.000     0.000    78.995
   08/04/2018 11:45:00      0.000     0.000     0.000    78.995
   08/04/2018 12:00:00      0.000     0.000     0.000    78.995
   08/04/2018 12:15:00      0.000     0.000     0.000    78.995
   08/04/2018 12:30:00      0.000     0.000     0.000    78.995
   08/04/2018 12:45:00      0.000     0.000     0.000    78.995
   08/04/2018 13:00:00      0.000     0.000     0.000    78.995
   08/04/2018 13:15:00      0.000     0.000     0.000    78.995
   08/04/2018 13:30:00      0.000     0.000     0.000    78.995
   08/04/2018 13:45:00      0.000     0.000     0.000    78.995
   08/04/2018 14:00:00      0.000     0.000     0.000    78.995
   08/04/2018 14:15:00      0.000     0.000     0.000    78.995
   08/04/2018 14:30:00      0.000     0.000     0.000    78.995
   08/04/2018 14:45:00      0.000     0.000     0.000    78.995
   08/04/2018 15:00:00      0.000     0.000     0.000    78.995
   08/04/2018 15:15:00      0.000     0.000     0.000    78.995
   08/04/2018 15:30:00      0.000     0.000     0.000    78.995
   08/04/2018 15:45:00      0.000     0.000     0.000    78.995
   08/04/2018 16:00:00      0.000     0.000     0.000    78.995
   08/04/2018 16:15:00      0.000     0.000     0.000    78.995
   08/04/2018 16:30:00      0.000     0.000     0.000    78.995
   08/04/2018 16:45:00      0.000     0.000     0.000    78.995
   08/04/2018 17:00:00      0.000     0.000     0.000    78.995
   08/04/2018 17:15:00      0.000     0.000     0.000    78.995
   08/04/2018 17:30:00      0.000     0.000     0.000    78.995
   08/04/2018 17:45:00      0.000     0.000     0.000    78.995
   08/04/2018 18:00:00      0.000     0.000     0.000    78.995
   08/04/2018 18:15:00      0.000     0.000     0.000    78.995
   08/04/2018 18:30:00      0.000     0.000     0.000    78.995
   08/04/2018 18:45:00      0.000     0.000     0.000    78.995
   08/04/2018 19:00:00      0.000     0.000     0.000    78.995
   08/04/2018 19:15:00      0.000     0.000     0.000    78.995
   08/04/2018 19:30:00      0.000     0.000     0.000    78.995
   08/04/2018 19:45:00      0.000     0.000     0.000    78.995
   08/04/2018 20:00:00      0.000     0.000     0.000    78.995
   08/04/2018 20:15:00      0.000     0.000     0.000    78.995
   08/04/2018 20:30:00      0.000     0.000     0.000    78.995
   08/04/2018 20:45:00      0.000     0.000     0.000    78.995
   08/04/2018 21:00:00      0.000     0.000     0.000    78.995
   08/04/2018 21:15:00      0.000     0.000     0.000    78.995
   08/04/2018 21:30:00      0.000     0.000     0.000    78.995
   08/04/2018 21:45:00      0.000     0.000     0.000    78.995
   08/04/2018 22:00:00      0.000     0.000     0.000    78.995
   08/04/2018 22:15:00      0.000     0.000     0.000    78.995
   08/04/2018 22:30:00      0.000     0.000     0.000    78.995
   08/04/2018 22:45:00      0.000     0.000     0.000    78.995
   08/04/2018 23:00:00      0.000     0.000     0.000    78.995
   08/04/2018 23:15:00      0.000     0.000     0.000    78.995
   08/04/2018 23:30:00      0.000     0.000     0.000    78.995
   08/04/2018 23:45:00      0.000     0.000     0.000    78.995
   08/05/2018 00:00:00      0.000     0.000     0.000    78.995
   08/05/2018 00:15:00      0.000     0.000     0.000    78.995
   08/05/2018 00:30:00      0.000     0.000     0.000    78.995
   08/05/2018 00:45:00      0.000     0.000     0.000    78.995
   08/05/2018 01:00:00      0.000     0.000     0.000    78.995
   08/05/2018 01:15:00      0.000     0.000     0.000    78.995
   08/05/2018 01:30:00      0.000     0.000     0.000    78.995
   08/05/2018 01:45:00      0.000     0.000     0.000    78.995
   08/05/2018 02:00:00      0.000     0.000     0.000    78.995
   08/05/2018 02:15:00      0.000     0.000     0.000    78.995
   08/05/2018 02:30:00      0.000     0.000     0.000    78.995
   08/05/2018 02:45:00      0.000     0.000     0.000    78.995
   08/05/2018 03:00:00      0.000     0.000     0.000    78.995
   08/05/2018 03:15:00      0.000     0.000     0.000    78.995
   08/05/2018 03:30:00      0.000     0.000     0.000    78.995
   08/05/2018 03:45:00      0.000     0.000     0.000    78.995
   08/05/2018 04:00:00      0.000     0.000     0.000    78.995
   08/05/2018 04:15:00      0.000     0.000     0.000    78.995
   08/05/2018 04:30:00      0.000     0.000     0.000    78.995
   08/05/2018 04:45:00      0.000     0.000     0.000    78.995
   08/05/2018 05:00:00      0.000     0.000     0.000    78.995
   08/05/2018 05:15:00      0.000     0.000     0.000    78.995
   08/05/2018 05:30:00      0.000     0.000     0.000    78.995
   08/05/2018 05:45:00      0.000     0.000     0.000    78.995
   08/05/2018 06:00:00      0.000     0.000     0.000    78.995
   08/05/2018 06:15:00      0.000     0.000     0.000    78.995
   08/05/2018 06:30:00      0.000     0.000     0.000    78.995
   08/05/2018 06:45:00      0.000     0.000     0.000    78.995
   08/05/2018 07:00:00      0.000     0.000     0.000    78.995
   08/05/2018 07:15:00      0.000     0.000     0.000    78.995
   08/05/2018 07:30:00      0.000     0.000     0.000    78.995
   08/05/2018 07:45:00      0.000     0.000     0.000    78.995
   08/05/2018 08:00:00      0.000     0.000     0.000    78.995
   08/05/2018 08:15:00      0.000     0.000     0.000    78.995
   08/05/2018 08:30:00      0.000     0.000     0.000    78.995
   08/05/2018 08:45:00      0.000     0.000     0.000    78.995
   08/05/2018 09:00:00      0.000     0.000     0.000    78.995
   08/05/2018 09:15:00      0.000     0.000     0.000    78.995
   08/05/2018 09:30:00      0.000     0.000     0.000    78.995
   08/05/2018 09:45:00      0.000     0.000     0.000    78.995
   08/05/2018 10:00:00      0.000     0.000     0.000    78.995
   08/05/2018 10:15:00      0.000     0.000     0.000    78.995
   08/05/2018 10:30:00      0.000     0.000     0.000    78.995
   08/05/2018 10:45:00      0.000     0.000     0.000    78.995
   08/05/2018 11:00:00      0.000     0.000     0.000    78.995
   08/05/2018 11:15:00      0.000     0.000     0.000    78.995
   08/05/2018 11:30:00      0.000     0.000     0.000    78.995
   08/05/2018 11:45:00      0.000     0.000     0.000    78.995
   08/05/2018 12:00:00      0.000     0.000     0.000    78.995
   08/05/2018 12:15:00      0.000     0.000     0.000    78.995
   08/05/2018 12:30:00      0.000     0.000     0.000    78.995
   08/05/2018 12:45:00      0.000     0.000     0.000    78.995
   08/05/2018 13:00:00      0.000     0.000     0.000    78.995
   08/05/2018 13:15:00      0.000     0.000     0.000    78.995
   08/05/2018 13:30:00      0.000     0.000     0.000    78.995
   08/05/2018 13:45:00      0.000     0.000     0.000    78.995
   08/05/2018 14:00:00      0.000     0.000     0.000    78.995
   08/05/2018 14:15:00      0.000     0.000     0.000    78.995
   08/05/2018 14:30:00      0.000     0.000     0.000    78.995
   08/05/2018 14:45:00      0.000     0.000     0.000    78.995
   08/05/2018 15:00:00      0.000     0.000     0.000    78.995
   08/05/2018 15:15:00      0.000     0.000     0.000    78.995
   08/05/2018 15:30:00      0.000     0.000     0.000    78.995
   08/05/2018 15:45:00      0.000     0.000     0.000    78.995
   08/05/2018 16:00:00      0.000     0.000     0.000    78.995
   08/05/2018 16:15:00      0.000     0.000     0.000    78.995
   08/05/2018 16:30:00      0.000     0.000     0.000    78.995
   08/05/2018 16:45:00      0.000     0.000     0.000    78.995
   08/05/2018 17:00:00      0.000     0.000     0.000    78.995
   08/05/2018 17:15:00      0.000     0.000     0.000    78.995
   08/05/2018 17:30:00      0.000     0.000     0.000    78.995
   08/05/2018 17:45:00      0.000     0.000     0.000    78.995
   08/05/2018 18:00:00      0.000     0.000     0.000    78.995
   08/05/2018 18:15:00      0.000     0.000     0.000    78.995
   08/05/2018 18:30:00      0.000     0.000     0.000    78.995
   08/05/2018 18:45:00      0.000     0.000     0.000    78.995
   08/05/2018 19:00:00      0.000     0.000     0.000    78.995
   08/05/2018 19:15:00      0.000     0.000     0.000    78.995
   08/05/2018 19:30:00      0.000     0.000     0.000    78.995
   08/05/2018 19:45:00      0.000     0.000     0.000    78.995
   08/05/2018 20:00:00      0.000     0.000     0.000    78.995
   08/05/2018 20:15:00      0.000     0.000     0.000    78.995
   08/05/2018 20:30:00      0.000     0.000     0.000    78.995
   08/05/2018 20:45:00      0.000     0.000     0.000    78.995
   08/05/2018 21:00:00      0.000     0.000     0.000    78.995
   08/05/2018 21:15:00      0.000     0.000     0.000    78.995
   08/05/2018 21:30:00      0.000     0.000     0.000    78.995
   08/05/2018 21:45:00      0.000     0.000     0.000    78.995
   08/05/2018 22:00:00      0.000     0.000     0.000    78.995
   08/05/2018 22:15:00      0.000     0.000     0.000    78.995
   08/05/2018 22:30:00      0.000     0.000     0.000    78.995
   08/05/2018 22:45:00      0.000     0.000     0.000    78.995
   08/05/2018 23:00:00      0.000     0.000     0.000    78.995
   08/05/2018 23:15:00      0.000     0.000     0.000    78.995
   08/05/2018 23:30:00      0.000     0.000     0.000    78.995
   08/05/2018 23:45:00      0.000     0.000     0.000    78.995
   08/06/2018 00:00:00      0.000     0.000     0.000    78.995
   08/06/2018 00:15:00      0.000     0.000     0.000    78.995
   08/06/2018 00:30:00      0.000     0.000     0.000    78.995
   08/06/2018 00:45:00      0.000     0.000     0.000    78.995
   08/06/2018 01:00:00      0.000     0.000     0.000    78.995
   08/06/2018 01:15:00      0.000     0.000     0.000    78.995
   08/06/2018 01:30:00      0.000     0.000     0.000    78.995
   08/06/2018 01:45:00      0.000     0.000     0.000    78.995
   08/06/2018 02:00:00      0.000     0.000     0.000    78.995
   08/06/2018 02:15:00      0.000     0.000     0.000    78.995
   08/06/2018 02:30:00      0.000     0.000     0.000    78.995
   08/06/2018 02:45:00      0.000     0.000     0.000    78.995
   08/06/2018 03:00:00      0.000     0.000     0.000    78.995
   08/06/2018 03:15:00      0.000     0.000     0.000    78.995
   08/06/2018 03:30:00      0.000     0.000     0.000    78.995
   08/06/2018 03:45:00      0.000     0.000     0.000    78.995
   08/06/2018 04:00:00      0.000     0.000     0.000    78.995
   08/06/2018 04:15:00      0.000     0.000     0.000    78.995
   08/06/2018 04:30:00      0.000     0.000     0.000    78.995
   08/06/2018 04:45:00      0.000     0.000     0.000    78.995
   08/06/2018 05:00:00      0.000     0.000     0.000    78.995
   08/06/2018 05:15:00      0.000     0.000     0.000    78.995
   08/06/2018 05:30:00      0.000     0.000     0.000    78.995
   08/06/2018 05:45:00      0.000     0.000     0.000    78.995
   08/06/2018 06:00:00      0.000     0.000     0.000    78.995
   08/06/2018 06:15:00      0.000     0.000     0.000    78.995
   08/06/2018 06:30:00      0.000     0.000     0.000    78.995
   08/06/2018 06:45:00      0.000     0.000     0.000    78.995
   08/06/2018 07:00:00      0.000     0.000     0.000    78.995
   08/06/2018 07:15:00      0.000     0.000     0.000    78.995
   08/06/2018 07:30:00      0.000     0.000     0.000    78.995
   08/06/2018 07:45:00      0.000     0.000     0.000    78.995
   08/06/2018 08:00:00      0.000     0.000     0.000    78.995
   08/06/2018 08:15:00      0.000     0.000     0.000    78.995
   08/06/2018 08:30:00      0.000     0.000     0.000    78.995
   08/06/2018 08:45:00      0.000     0.000     0.000    78.995
   08/06/2018 09:00:00      0.000     0.000     0.000    78.995
   08/06/2018 09:15:00      0.000     0.000     0.000    78.995
   08/06/2018 09:30:00      0.000     0.000     0.000    78.995
   08/06/2018 09:45:00      0.000     0.000     0.000    78.995
   08/06/2018 10:00:00      0.000     0.000     0.000    78.995
   08/06/2018 10:15:00      0.000     0.000     0.000    78.995
   08/06/2018 10:30:00      0.000     0.000     0.000    78.995
   08/06/2018 10:45:00      0.000     0.000     0.000    78.995
   08/06/2018 11:00:00      0.000     0.000     0.000    78.995
   08/06/2018 11:15:00      0.000     0.000     0.000    78.995
   08/06/2018 11:30:00      0.000     0.000     0.000    78.995
   08/06/2018 11:45:00      0.000     0.000     0.000    78.995
   08/06/2018 12:00:00      0.000     0.000     0.000    78.995
   08/06/2018 12:15:00      0.000     0.000     0.000    78.995
   08/06/2018 12:30:00      0.000     0.000     0.000    78.995
   08/06/2018 12:45:00      0.000     0.000     0.000    78.995
   08/06/2018 13:00:00      0.000     0.000     0.000    78.995
   08/06/2018 13:15:00      0.000     0.000     0.000    78.995
   08/06/2018 13:30:00      0.000     0.000     0.000    78.995
   08/06/2018 13:45:00      0.000     0.000     0.000    78.995
   08/06/2018 14:00:00      0.000     0.000     0.000    78.995
   08/06/2018 14:15:00      0.000     0.000     0.000    78.995
   08/06/2018 14:30:00      1.016     0.000     0.000    78.995
   08/06/2018 14:45:00      6.331     0.000     0.000    78.995
   08/06/2018 15:00:00     12.074     0.000     0.000    78.995
   08/06/2018 15:15:00     12.184     0.000     0.000    78.995
   08/06/2018 15:30:00     12.101     0.000     0.000    78.995
   08/06/2018 15:45:00     11.236     0.000     0.000    78.995
   08/06/2018 16:00:00     10.083     0.000     0.000    78.995
   08/06/2018 16:15:00      9.079     0.000     0.000    78.995
   08/06/2018 16:30:00      8.209     0.000     0.000    78.995
   08/06/2018 16:45:00      7.451     0.000     0.000    78.995
   08/06/2018 17:00:00      6.788     0.000     0.000    78.995
   08/06/2018 17:15:00      6.204     0.000     0.000    78.995
   08/06/2018 17:30:00      5.689     0.000     0.000    78.995
   08/06/2018 17:45:00      5.231     0.000     0.000    78.995
   08/06/2018 18:00:00      4.824     0.000     0.000    78.995
   08/06/2018 18:15:00      4.459     0.000     0.000    78.995
   08/06/2018 18:30:00      4.132     0.000     0.000    78.995
   08/06/2018 18:45:00      3.838     0.000     0.000    78.995
   08/06/2018 19:00:00      3.572     0.000     0.000    78.995
   08/06/2018 19:15:00      3.331     0.000     0.000    78.995
   08/06/2018 19:30:00      3.112     0.000     0.000    78.995
   08/06/2018 19:45:00      2.913     0.000     0.000    78.995
   08/06/2018 20:00:00      2.732     0.000     0.000    78.995
   08/06/2018 20:15:00      2.565     0.000     0.000    78.995
   08/06/2018 20:30:00      2.413     0.000     0.000    78.995
   08/06/2018 20:45:00      2.273     0.000     0.000    78.995
   08/06/2018 21:00:00      2.144     0.000     0.000    78.995
   08/06/2018 21:15:00      2.025     0.000     0.000    78.995
   08/06/2018 21:30:00      1.915     0.000     0.000    78.995
   08/06/2018 21:45:00      1.814     0.000     0.000    78.995
   08/06/2018 22:00:00      1.719     0.000     0.000    78.995
   08/06/2018 22:15:00      1.632     0.000     0.000    78.995
   08/06/2018 22:30:00      1.550     0.000     0.000    78.995
   08/06/2018 22:45:00      1.474     0.000     0.000    78.995
   08/06/2018 23:00:00      1.404     0.000     0.000    78.995
   08/06/2018 23:15:00      1.337     0.000     0.000    78.995
   08/06/2018 23:30:00      2.019     0.000     0.000    78.995
   08/06/2018 23:45:00      2.792     0.000     0.000    78.995
   08/07/2018 00:00:00      4.956     0.000     0.000    78.995
   08/07/2018 00:15:00      6.447     0.000     0.000    78.995
   08/07/2018 00:30:00      6.589     0.000     0.000    78.995
   08/07/2018 00:45:00      6.050     0.000     0.000    78.995
   08/07/2018 01:00:00      5.552     0.000     0.000    78.995
   08/07/2018 01:15:00      5.109     0.000     0.000    78.995
   08/07/2018 01:30:00      4.715     0.000     0.000    78.995
   08/07/2018 01:45:00      4.362     0.000     0.000    78.995
   08/07/2018 02:00:00      4.044     0.000     0.000    78.995
   08/07/2018 02:15:00      3.759     0.000     0.000    78.995
   08/07/2018 02:30:00      3.500     0.000     0.000    78.995
   08/07/2018 02:45:00      3.266     0.000     0.000    78.995
   08/07/2018 03:00:00      3.053     0.000     0.000    78.995
   08/07/2018 03:15:00      2.859     0.000     0.000    78.995
   08/07/2018 03:30:00      2.682     0.000     0.000    78.995
   08/07/2018 03:45:00      2.520     0.000     0.000    78.995
   08/07/2018 04:00:00      2.371     0.000     0.000    78.995
   08/07/2018 04:15:00      2.448     0.000     0.000    78.995
   08/07/2018 04:30:00      2.753     0.000     0.000    78.995
   08/07/2018 04:45:00      2.600     0.000     0.000    78.995
   08/07/2018 05:00:00      2.445     0.000     0.000    78.995
   08/07/2018 05:15:00      2.302     0.000     0.000    78.995
   08/07/2018 05:30:00      2.171     0.000     0.000    78.995
   08/07/2018 05:45:00      2.050     0.000     0.000    78.995
   08/07/2018 06:00:00      1.938     0.000     0.000    78.995
   08/07/2018 06:15:00      1.835     0.000     0.000    78.995
   08/07/2018 06:30:00      1.739     0.000     0.000    78.995
   08/07/2018 06:45:00      1.650     0.000     0.000    78.995
   08/07/2018 07:00:00      1.567     0.000     0.000    78.995
   08/07/2018 07:15:00      1.490     0.000     0.000    78.995
   08/07/2018 07:30:00      1.419     0.000     0.000    78.995
   08/07/2018 07:45:00      1.351     0.000     0.000    78.995
   08/07/2018 08:00:00      1.289     0.000     0.000    78.995
   08/07/2018 08:15:00      1.230     0.000     0.000    78.995
   08/07/2018 08:30:00      1.175     0.000     0.000    78.995
   08/07/2018 08:45:00      1.123     0.000     0.000    78.995
   08/07/2018 09:00:00      1.075     0.000     0.000    78.995
   08/07/2018 09:15:00      1.029     0.000     0.000    78.995
   08/07/2018 09:30:00      0.986     0.000     0.000    78.995
   08/07/2018 09:45:00      0.946     0.000     0.000    78.995
   08/07/2018 10:00:00      0.907     0.000     0.000    78.995
   08/07/2018 10:15:00      0.871     0.000     0.000    78.995
   08/07/2018 10:30:00      0.837     0.000     0.000    78.995
   08/07/2018 10:45:00      0.805     0.000     0.000    78.995
   08/07/2018 11:00:00      0.774     0.000     0.000    78.995
   08/07/2018 11:15:00      0.745     0.000     0.000    78.995
   08/07/2018 11:30:00      0.718     0.000     0.000    78.995
   08/07/2018 11:45:00      0.692     0.000     0.000    78.995
   08/07/2018 12:00:00      0.667     0.000     0.000    78.995
   08/07/2018 12:15:00      0.644     0.000     0.000    78.995
   08/07/2018 12:30:00      0.621     0.000     0.000    78.995
   08/07/2018 12:45:00      0.600     0.000     0.000    78.995
   08/07/2018 13:00:00      0.580     0.000     0.000    78.995
   08/07/2018 13:15:00      0.560     0.000     0.000    78.995
   08/07/2018 13:30:00      0.542     0.000     0.000    78.995
   08/07/2018 13:45:00      0.524     0.000     0.000    78.995
   08/07/2018 14:00:00      0.507     0.000     0.000    78.995
   08/07/2018 14:15:00      0.491     0.000     0.000    78.995
   08/07/2018 14:30:00      0.476     0.000     0.000    78.995
   08/07/2018 14:45:00      0.461     0.000     0.000    78.995
   08/07/2018 15:00:00      0.447     0.000     0.000    78.995
   08/07/2018 15:15:00      0.434     0.000     0.000    78.995
   08/07/2018 15:30:00      0.421     0.000     0.000    78.995
   08/07/2018 15:45:00      0.408     0.000     0.000    78.995
   08/07/2018 16:00:00      0.396     0.000     0.000    78.995
   08/07/2018 16:15:00      0.385     0.000     0.000    78.995
   08/07/2018 16:30:00      0.374     0.000     0.000    78.995
   08/07/2018 16:45:00      0.363     0.000     0.000    78.995
   08/07/2018 17:00:00      0.353     0.000     0.000    78.995
   08/07/2018 17:15:00      0.344     0.000     0.000    78.995
   08/07/2018 17:30:00      0.334     0.000     0.000    78.995
   08/07/2018 17:45:00      0.325     0.000     0.000    78.995
   08/07/2018 18:00:00      0.317     0.000     0.000    78.995
   08/07/2018 18:15:00      0.308     0.000     0.000    78.995
   08/07/2018 18:30:00      0.300     0.000     0.000    78.995
   08/07/2018 18:45:00      0.293     0.000     0.000    78.995
   08/07/2018 19:00:00      0.285     0.000     0.000    78.995
   08/07/2018 19:15:00      0.278     0.000     0.000    78.995
   08/07/2018 19:30:00      0.271     0.000     0.000    78.995
   08/07/2018 19:45:00      0.264     0.000     0.000    78.995
   08/07/2018 20:00:00      0.258     0.000     0.000    78.995
   08/07/2018 20:15:00      0.251     0.000     0.000    78.995
   08/07/2018 20:30:00      0.245     0.000     0.000    78.995
   08/07/2018 20:45:00      0.439     0.000     0.000    78.995
   08/07/2018 21:00:00      2.450     0.000     0.000    78.995
   08/07/2018 21:15:00      8.072     0.000     0.000    78.995
   08/07/2018 21:30:00     12.373     0.000     0.000    78.995
   08/07/2018 21:45:00     14.060     0.000     0.000    78.995
   08/07/2018 22:00:00     14.237     0.000     0.000    78.995
   08/07/2018 22:15:00     13.927     0.000     0.000    78.995
   08/07/2018 22:30:00     12.404     0.000     0.000    78.995
   08/07/2018 22:45:00     11.460     0.000     0.000    78.995
   08/07/2018 23:00:00     10.275     0.000     0.000    78.995
   08/07/2018 23:15:00      9.609     0.000     0.000    78.995
   08/07/2018 23:30:00      8.680     0.000     0.000    78.995
   08/07/2018 23:45:00      7.862     0.000     0.000    78.995
   08/08/2018 00:00:00      7.148     0.000     0.000    78.995
   08/08/2018 00:15:00      6.522     0.000     0.000    78.995
   08/08/2018 00:30:00      5.969     0.000     0.000    78.995
   08/08/2018 00:45:00      5.481     0.000     0.000    78.995
   08/08/2018 01:00:00      5.046     0.000     0.000    78.995
   08/08/2018 01:15:00      4.658     0.000     0.000    78.995
   08/08/2018 01:30:00      4.311     0.000     0.000    78.995
   08/08/2018 01:45:00      3.999     0.000     0.000    78.995
   08/08/2018 02:00:00      3.717     0.000     0.000    78.995
   08/08/2018 02:15:00      3.463     0.000     0.000    78.995
   08/08/2018 02:30:00      3.232     0.000     0.000    78.995
   08/08/2018 02:45:00      3.022     0.000     0.000    78.995
   08/08/2018 03:00:00      2.831     0.000     0.000    78.995
   08/08/2018 03:15:00      2.657     0.000     0.000    78.995
   08/08/2018 03:30:00      2.497     0.000     0.000    78.995
   08/08/2018 03:45:00      2.350     0.000     0.000    78.995
   08/08/2018 04:00:00      2.215     0.000     0.000    78.995
   08/08/2018 04:15:00      2.090     0.000     0.000    78.995
   08/08/2018 04:30:00      1.976     0.000     0.000    78.995
   08/08/2018 04:45:00      1.869     0.000     0.000    78.995
   08/08/2018 05:00:00      1.771     0.000     0.000    78.995
   08/08/2018 05:15:00      1.680     0.000     0.000    78.995
   08/08/2018 05:30:00      1.595     0.000     0.000    78.995
   08/08/2018 05:45:00      1.516     0.000     0.000    78.995
   08/08/2018 06:00:00      1.813     0.000     0.000    78.995
   08/08/2018 06:15:00      2.128     0.000     0.000    78.995
   08/08/2018 06:30:00      2.894     0.000     0.000    78.995
   08/08/2018 06:45:00      3.213     0.000     0.000    78.995
   08/08/2018 07:00:00      3.760     0.000     0.000    78.995
   08/08/2018 07:15:00      4.309     0.000     0.000    78.995
   08/08/2018 07:30:00      4.290     0.000     0.000    78.995
   08/08/2018 07:45:00      3.989     0.000     0.000    78.995
   08/08/2018 08:00:00      3.967     0.000     0.000    78.995
   08/08/2018 08:15:00      3.697     0.000     0.000    78.995
   08/08/2018 08:30:00      4.220     0.000     0.000    78.995
   08/08/2018 08:45:00      4.208     0.000     0.000    78.995
   08/08/2018 09:00:00      6.848     0.000     0.000    78.995
   08/08/2018 09:15:00      6.360     0.000     0.000    78.995
   08/08/2018 09:30:00      6.133     0.000     0.000    78.995
   08/08/2018 09:45:00      5.636     0.000     0.000    78.995
   08/08/2018 10:00:00      5.184     0.000     0.000    78.995
   08/08/2018 10:15:00      4.782     0.000     0.000    78.995
   08/08/2018 10:30:00      4.422     0.000     0.000    78.995
   08/08/2018 10:45:00      4.098     0.000     0.000    78.995
   08/08/2018 11:00:00      3.807     0.000     0.000    78.995
   08/08/2018 11:15:00      3.798     0.000     0.000    78.995
   08/08/2018 11:30:00      3.545     0.000     0.000    78.995
   08/08/2018 11:45:00      3.307     0.000     0.000    78.995
   08/08/2018 12:00:00      3.090     0.000     0.000    78.995
   08/08/2018 12:15:00      2.893     0.000     0.000    78.995
   08/08/2018 12:30:00      2.713     0.000     0.000    78.995
   08/08/2018 12:45:00      2.548     0.000     0.000    78.995
   08/08/2018 13:00:00      2.397     0.000     0.000    78.995
   08/08/2018 13:15:00      2.259     0.000     0.000    78.995
   08/08/2018 13:30:00      2.131     0.000     0.000    78.995
   08/08/2018 13:45:00      2.013     0.000     0.000    78.995
   08/08/2018 14:00:00      1.904     0.000     0.000    78.995
   08/08/2018 14:15:00      1.803     0.000     0.000    78.995
   08/08/2018 14:30:00      1.710     0.000     0.000    78.995
   08/08/2018 14:45:00      1.623     0.000     0.000    78.995
   08/08/2018 15:00:00      1.542     0.000     0.000    78.995
   08/08/2018 15:15:00      1.467     0.000     0.000    78.995
   08/08/2018 15:30:00      1.396     0.000     0.000    78.995
   08/08/2018 15:45:00      1.331     0.000     0.000    78.995
   08/08/2018 16:00:00      1.269     0.000     0.000    78.995
   08/08/2018 16:15:00      1.212     0.000     0.000    78.995
   08/08/2018 16:30:00      1.158     0.000     0.000    78.995
   08/08/2018 16:45:00      1.107     0.000     0.000    78.995
   08/08/2018 17:00:00      1.060     0.000     0.000    78.995
   08/08/2018 17:15:00      1.015     0.000     0.000    78.995
   08/08/2018 17:30:00      0.973     0.000     0.000    78.995
   08/08/2018 17:45:00      0.933     0.000     0.000    78.995
   08/08/2018 18:00:00      0.895     0.000     0.000    78.995
   08/08/2018 18:15:00      0.860     0.000     0.000    78.995
   08/08/2018 18:30:00      0.827     0.000     0.000    78.995
   08/08/2018 18:45:00      0.795     0.000     0.000    78.995
   08/08/2018 19:00:00      0.765     0.000     0.000    78.995
   08/08/2018 19:15:00      0.736     0.000     0.000    78.995
   08/08/2018 19:30:00      0.709     0.000     0.000    78.995
   08/08/2018 19:45:00      0.684     0.000     0.000    78.995
   08/08/2018 20:00:00      0.659     0.000     0.000    78.995
   08/08/2018 20:15:00      0.636     0.000     0.000    78.995
   08/08/2018 20:30:00      0.614     0.000     0.000    78.995
   08/08/2018 20:45:00      0.593     0.000     0.000    78.995
   08/08/2018 21:00:00      0.573     0.000     0.000    78.995
   08/08/2018 21:15:00      0.554     0.000     0.000    78.995
   08/08/2018 21:30:00      0.536     0.000     0.000    78.995
   08/08/2018 21:45:00      0.519     0.000     0.000    78.995
   08/08/2018 22:00:00      0.502     0.000     0.000    78.995
   08/08/2018 22:15:00      0.486     0.000     0.000    78.995
   08/08/2018 22:30:00      0.471     0.000     0.000    78.995
   08/08/2018 22:45:00      0.457     0.000     0.000    78.995
   08/08/2018 23:00:00      0.443     0.000     0.000    78.995
   08/08/2018 23:15:00      0.429     0.000     0.000    78.995
   08/08/2018 23:30:00      0.417     0.000     0.000    78.995
   08/08/2018 23:45:00      0.404     0.000     0.000    78.995
   08/09/2018 00:00:00      0.393     0.000     0.000    78.995
   08/09/2018 00:15:00      0.381     0.000     0.000    78.995
   08/09/2018 00:30:00      0.371     0.000     0.000    78.995
   08/09/2018 00:45:00      0.360     0.000     0.000    78.995
   08/09/2018 01:00:00      0.350     0.000     0.000    78.995
   08/09/2018 01:15:00      0.341     0.000     0.000    78.995
   08/09/2018 01:30:00      0.331     0.000     0.000    78.995
   08/09/2018 01:45:00      0.322     0.000     0.000    78.995
   08/09/2018 02:00:00      0.314     0.000     0.000    78.995
   08/09/2018 02:15:00      0.306     0.000     0.000    78.995
   08/09/2018 02:30:00      0.298     0.000     0.000    78.995
   08/09/2018 02:45:00      0.290     0.000     0.000    78.995
   08/09/2018 03:00:00      0.283     0.000     0.000    78.995
   08/09/2018 03:15:00      0.276     0.000     0.000    78.995
   08/09/2018 03:30:00      0.269     0.000     0.000    78.995
   08/09/2018 03:45:00      0.262     0.000     0.000    78.995
   08/09/2018 04:00:00      0.256     0.000     0.000    78.995
   08/09/2018 04:15:00      0.249     0.000     0.000    78.995
   08/09/2018 04:30:00      0.243     0.000     0.000    78.995
   08/09/2018 04:45:00      0.238     0.000     0.000    78.995
   08/09/2018 05:00:00      0.232     0.000     0.000    78.995
   08/09/2018 05:15:00      0.227     0.000     0.000    78.995
   08/09/2018 05:30:00      0.221     0.000     0.000    78.995
   08/09/2018 05:45:00      0.216     0.000     0.000    78.995
   08/09/2018 06:00:00      0.211     0.000     0.000    78.995
   08/09/2018 06:15:00      0.207     0.000     0.000    78.995
   08/09/2018 06:30:00      0.202     0.000     0.000    78.995
   08/09/2018 06:45:00      0.198     0.000     0.000    78.995
   08/09/2018 07:00:00      0.193     0.000     0.000    78.995
   08/09/2018 07:15:00      0.189     0.000     0.000    78.995
   08/09/2018 07:30:00      0.185     0.000     0.000    78.995
   08/09/2018 07:45:00      0.181     0.000     0.000    78.995
   08/09/2018 08:00:00      0.177     0.000     0.000    78.995
   08/09/2018 08:15:00      0.174     0.000     0.000    78.995
   08/09/2018 08:30:00      0.170     0.000     0.000    78.995
   08/09/2018 08:45:00      0.166     0.000     0.000    78.995
   08/09/2018 09:00:00      0.163     0.000     0.000    78.995
   08/09/2018 09:15:00      0.160     0.000     0.000    78.995
   08/09/2018 09:30:00      0.156     0.000     0.000    78.995
   08/09/2018 09:45:00      0.153     0.000     0.000    78.995
   08/09/2018 10:00:00      0.150     0.000     0.000    78.995
   08/09/2018 10:15:00      0.147     0.000     0.000    78.995
   08/09/2018 10:30:00      0.144     0.000     0.000    78.995
   08/09/2018 10:45:00      0.142     0.000     0.000    78.995
   08/09/2018 11:00:00      0.139     0.000     0.000    78.995
   08/09/2018 11:15:00      0.136     0.000     0.000    78.995
   08/09/2018 11:30:00      0.134     0.000     0.000    78.995
   08/09/2018 11:45:00      0.131     0.000     0.000    78.995
   08/09/2018 12:00:00      0.129     0.000     0.000    78.995
   08/09/2018 12:15:00      0.126     0.000     0.000    78.995
   08/09/2018 12:30:00      0.124     0.000     0.000    78.995
   08/09/2018 12:45:00      0.122     0.000     0.000    78.995
   08/09/2018 13:00:00      0.120     0.000     0.000    78.995
   08/09/2018 13:15:00      0.117     0.000     0.000    78.995
   08/09/2018 13:30:00      0.115     0.000     0.000    78.995
   08/09/2018 13:45:00      0.113     0.000     0.000    78.995
   08/09/2018 14:00:00      0.111     0.000     0.000    78.995
   08/09/2018 14:15:00      0.109     0.000     0.000    78.995
   08/09/2018 14:30:00      0.107     0.000     0.000    78.995
   08/09/2018 14:45:00      0.106     0.000     0.000    78.995
   08/09/2018 15:00:00      0.104     0.000     0.000    78.995
   08/09/2018 15:15:00      0.102     0.000     0.000    78.995
   08/09/2018 15:30:00      0.100     0.000     0.000    78.995
   08/09/2018 15:45:00      0.099     0.000     0.000    78.995
   08/09/2018 16:00:00      0.097     0.000     0.000    78.995
   08/09/2018 16:15:00      0.095     0.000     0.000    78.995
   08/09/2018 16:30:00      0.094     0.000     0.000    78.995
   08/09/2018 16:45:00      0.092     0.000     0.000    78.995
   08/09/2018 17:00:00      0.091     0.000     0.000    78.995
   08/09/2018 17:15:00      0.089     0.000     0.000    78.995
   08/09/2018 17:30:00      0.088     0.000     0.000    78.995
   08/09/2018 17:45:00      0.087     0.000     0.000    78.995
   08/09/2018 18:00:00      0.085     0.000     0.000    78.995
   08/09/2018 18:15:00      0.084     0.000     0.000    78.995
   08/09/2018 18:30:00      0.083     0.000     0.000    78.995
   08/09/2018 18:45:00      0.081     0.000     0.000    78.995
   08/09/2018 19:00:00      0.080     0.000     0.000    78.995
   08/09/2018 19:15:00      0.079     0.000     0.000    78.995
   08/09/2018 19:30:00      0.078     0.000     0.000    78.995
   08/09/2018 19:45:00      0.076     0.000     0.000    78.995
   08/09/2018 20:00:00      0.075     0.000     0.000    78.995
   08/09/2018 20:15:00      0.074     0.000     0.000    78.995
   08/09/2018 20:30:00      0.073     0.000     0.000    78.995
   08/09/2018 20:45:00      0.072     0.000     0.000    78.995
   08/09/2018 21:00:00      0.071     0.000     0.000    78.995
   08/09/2018 21:15:00      0.070     0.000     0.000    78.995
   08/09/2018 21:30:00      0.069     0.000     0.000    78.995
   08/09/2018 21:45:00      0.068     0.000     0.000    78.995
   08/09/2018 22:00:00      0.067     0.000     0.000    78.995
   08/09/2018 22:15:00      0.066     0.000     0.000    78.995
   08/09/2018 22:30:00      0.065     0.000     0.000    78.995
   08/09/2018 22:45:00      0.064     0.000     0.000    78.995
   08/09/2018 23:00:00      0.063     0.000     0.000    78.995
   08/09/2018 23:15:00      0.062     0.000     0.000    78.995
   08/09/2018 23:30:00      0.061     0.000     0.000    78.995
   08/09/2018 23:45:00      0.061     0.000     0.000    78.995
   08/10/2018 00:00:00      0.060     0.000     0.000    78.995
   08/10/2018 00:15:00      0.059     0.000     0.000    78.995
   08/10/2018 00:30:00      0.058     0.000     0.000    78.995
   08/10/2018 00:45:00      0.057     0.000     0.000    78.995
   08/10/2018 01:00:00      0.057     0.000     0.000    78.995
   08/10/2018 01:15:00      0.056     0.000     0.000    78.995
   08/10/2018 01:30:00      0.055     0.000     0.000    78.995
   08/10/2018 01:45:00      0.054     0.000     0.000    78.995
   08/10/2018 02:00:00      0.054     0.000     0.000    78.995
   08/10/2018 02:15:00      0.053     0.000     0.000    78.995
   08/10/2018 02:30:00      0.052     0.000     0.000    78.995
   08/10/2018 02:45:00      0.052     0.000     0.000    78.995
   08/10/2018 03:00:00      0.051     0.000     0.000    78.995
   08/10/2018 03:15:00      0.050     0.000     0.000    78.995
   08/10/2018 03:30:00      0.050     0.000     0.000    78.995
   08/10/2018 03:45:00      0.049     0.000     0.000    78.995
   08/10/2018 04:00:00      0.048     0.000     0.000    78.995
   08/10/2018 04:15:00      0.048     0.000     0.000    78.995
   08/10/2018 04:30:00      0.047     0.000     0.000    78.995
   08/10/2018 04:45:00      0.047     0.000     0.000    78.995
   08/10/2018 05:00:00      0.046     0.000     0.000    78.995
   08/10/2018 05:15:00      0.045     0.000     0.000    78.995
   08/10/2018 05:30:00      0.045     0.000     0.000    78.995
   08/10/2018 05:45:00      0.044     0.000     0.000    78.995
   08/10/2018 06:00:00      0.044     0.000     0.000    78.995
   08/10/2018 06:15:00      0.043     0.000     0.000    78.995
   08/10/2018 06:30:00      0.043     0.000     0.000    78.995
   08/10/2018 06:45:00      0.042     0.000     0.000    78.995
   08/10/2018 07:00:00      0.042     0.000     0.000    78.995
   08/10/2018 07:15:00      0.041     0.000     0.000    78.995
   08/10/2018 07:30:00      0.041     0.000     0.000    78.995
   08/10/2018 07:45:00      0.040     0.000     0.000    78.995
   08/10/2018 08:00:00      0.040     0.000     0.000    78.995
   08/10/2018 08:15:00      0.039     0.000     0.000    78.995
   08/10/2018 08:30:00      0.039     0.000     0.000    78.995
   08/10/2018 08:45:00      0.038     0.000     0.000    78.995
   08/10/2018 09:00:00      0.038     0.000     0.000    78.995
   08/10/2018 09:15:00      0.038     0.000     0.000    78.995
   08/10/2018 09:30:00      0.037     0.000     0.000    78.995
   08/10/2018 09:45:00      0.037     0.000     0.000    78.995
   08/10/2018 10:00:00      0.036     0.000     0.000    78.995
   08/10/2018 10:15:00      0.036     0.000     0.000    78.995
   08/10/2018 10:30:00      0.035     0.000     0.000    78.995
   08/10/2018 10:45:00      0.035     0.000     0.000    78.995
   08/10/2018 11:00:00      0.035     0.000     0.000    78.995
   08/10/2018 11:15:00      0.034     0.000     0.000    78.995
   08/10/2018 11:30:00      0.034     0.000     0.000    78.995
   08/10/2018 11:45:00      0.034     0.000     0.000    78.995
   08/10/2018 12:00:00      0.033     0.000     0.000    78.995
   08/10/2018 12:15:00      0.033     0.000     0.000    78.995
   08/10/2018 12:30:00      0.033     0.000     0.000    78.995
   08/10/2018 12:45:00      0.032     0.000     0.000    78.995
   08/10/2018 13:00:00      0.032     0.000     0.000    78.995
   08/10/2018 13:15:00      0.031     0.000     0.000    78.995
   08/10/2018 13:30:00      0.031     0.000     0.000    78.995
   08/10/2018 13:45:00      0.031     0.000     0.000    78.995
   08/10/2018 14:00:00      0.030     0.000     0.000    78.995
   08/10/2018 14:15:00      0.030     0.000     0.000    78.995
   08/10/2018 14:30:00      0.030     0.000     0.000    78.995
   08/10/2018 14:45:00      0.030     0.000     0.000    78.995
   08/10/2018 15:00:00      0.029     0.000     0.000    78.995
   08/10/2018 15:15:00      0.029     0.000     0.000    78.995
   08/10/2018 15:30:00      0.029     0.000     0.000    78.995
   08/10/2018 15:45:00      0.028     0.000     0.000    78.995
   08/10/2018 16:00:00      0.028     0.000     0.000    78.995
   08/10/2018 16:15:00      0.028     0.000     0.000    78.995
   08/10/2018 16:30:00      0.028     0.000     0.000    78.995
   08/10/2018 16:45:00      0.027     0.000     0.000    78.995
   08/10/2018 17:00:00      0.027     0.000     0.000    78.995
   08/10/2018 17:15:00      0.027     0.000     0.000    78.995
   08/10/2018 17:30:00      0.026     0.000     0.000    78.995
   08/10/2018 17:45:00      0.026     0.000     0.000    78.995
   08/10/2018 18:00:00      0.026     0.000     0.000    78.995
   08/10/2018 18:15:00      0.026     0.000     0.000    78.995
   08/10/2018 18:30:00      0.025     0.000     0.000    78.995
   08/10/2018 18:45:00      0.025     0.000     0.000    78.995
   08/10/2018 19:00:00      0.025     0.000     0.000    78.995
   08/10/2018 19:15:00      0.025     0.000     0.000    78.995
   08/10/2018 19:30:00      0.024     0.000     0.000    78.995
   08/10/2018 19:45:00      0.024     0.000     0.000    78.995
   08/10/2018 20:00:00      0.024     0.000     0.000    78.995
   08/10/2018 20:15:00      0.024     0.000     0.000    78.995
   08/10/2018 20:30:00      0.024     0.000     0.000    78.995
   08/10/2018 20:45:00      0.023     0.000     0.000    78.995
   08/10/2018 21:00:00      0.023     0.000     0.000    78.995
   08/10/2018 21:15:00      0.023     0.000     0.000    78.995
   08/10/2018 21:30:00      0.023     0.000     0.000    78.995
   08/10/2018 21:45:00      0.022     0.000     0.000    78.995
   08/10/2018 22:00:00      0.022     0.000     0.000    78.995
   08/10/2018 22:15:00      0.022     0.000     0.000    78.995
   08/10/2018 22:30:00      0.022     0.000     0.000    78.995
   08/10/2018 22:45:00      0.022     0.000     0.000    78.995
   08/10/2018 23:00:00      0.021     0.000     0.000    78.995
   08/10/2018 23:15:00      0.021     0.000     0.000    78.995
   08/10/2018 23:30:00      0.021     0.000     0.000    78.995
   08/10/2018 23:45:00      0.021     0.000     0.000    78.995
   08/11/2018 00:00:00      0.021     0.000     0.000    78.995
   08/11/2018 00:15:00      0.020     0.000     0.000    78.995
   08/11/2018 00:30:00      0.020     0.000     0.000    78.995
   08/11/2018 00:45:00      0.020     0.000     0.000    78.995
   08/11/2018 01:00:00      0.020     0.000     0.000    78.995
   08/11/2018 01:15:00      0.020     0.000     0.000    78.995
   08/11/2018 01:30:00      0.020     0.000     0.000    78.995
   08/11/2018 01:45:00      0.019     0.000     0.000    78.995
   08/11/2018 02:00:00      0.019     0.000     0.000    78.995
   08/11/2018 02:15:00      0.019     0.000     0.000    78.995
   08/11/2018 02:30:00      0.019     0.000     0.000    78.995
   08/11/2018 02:45:00      0.019     0.000     0.000    78.995
   08/11/2018 03:00:00      0.019     0.000     0.000    78.995
   08/11/2018 03:15:00      0.018     0.000     0.000    78.995
   08/11/2018 03:30:00      0.018     0.000     0.000    78.995
   08/11/2018 03:45:00      0.018     0.000     0.000    78.995
   08/11/2018 04:00:00      0.018     0.000     0.000    78.995
   08/11/2018 04:15:00      0.018     0.000     0.000    78.995
   08/11/2018 04:30:00      0.018     0.000     0.000    78.995
   08/11/2018 04:45:00      0.018     0.000     0.000    78.995
   08/11/2018 05:00:00      0.017     0.000     0.000    78.995
   08/11/2018 05:15:00      0.017     0.000     0.000    78.995
   08/11/2018 05:30:00      0.017     0.000     0.000    78.995
   08/11/2018 05:45:00      0.017     0.000     0.000    78.995
   08/11/2018 06:00:00      0.017     0.000     0.000    78.995
   08/11/2018 06:15:00      0.017     0.000     0.000    78.995
   08/11/2018 06:30:00      0.017     0.000     0.000    78.995
   08/11/2018 06:45:00      0.016     0.000     0.000    78.995
   08/11/2018 07:00:00      0.016     0.000     0.000    78.995
   08/11/2018 07:15:00      0.016     0.000     0.000    78.995
   08/11/2018 07:30:00      0.016     0.000     0.000    78.995
   08/11/2018 07:45:00      0.016     0.000     0.000    78.995
   08/11/2018 08:00:00      0.016     0.000     0.000    78.995
   08/11/2018 08:15:00      0.016     0.000     0.000    78.995
   08/11/2018 08:30:00      0.015     0.000     0.000    78.995
   08/11/2018 08:45:00      0.015     0.000     0.000    78.995
   08/11/2018 09:00:00      0.015     0.000     0.000    78.995
   08/11/2018 09:15:00      0.015     0.000     0.000    78.995
   08/11/2018 09:30:00      0.015     0.000     0.000    78.995
   08/11/2018 09:45:00      0.015     0.000     0.000    78.995
   08/11/2018 10:00:00      0.015     0.000     0.000    78.995
   08/11/2018 10:15:00      0.015     0.000     0.000    78.995
   08/11/2018 10:30:00      0.015     0.000     0.000    78.995
   08/11/2018 10:45:00      0.014     0.000     0.000    78.995
   08/11/2018 11:00:00      0.014     0.000     0.000    78.995
   08/11/2018 11:15:00      0.014     0.000     0.000    78.995
   08/11/2018 11:30:00      0.014     0.000     0.000    78.995
   08/11/2018 11:45:00      0.014     0.000     0.000    78.995
   08/11/2018 12:00:00      0.014     0.000     0.000    78.995
   08/11/2018 12:15:00      0.014     0.000     0.000    78.995
   08/11/2018 12:30:00      0.014     0.000     0.000    78.995
   08/11/2018 12:45:00      0.014     0.000     0.000    78.995
   08/11/2018 13:00:00      0.013     0.000     0.000    78.995
   08/11/2018 13:15:00      0.013     0.000     0.000    78.995
   08/11/2018 13:30:00      0.013     0.000     0.000    78.995
   08/11/2018 13:45:00      0.013     0.000     0.000    78.995
   08/11/2018 14:00:00      0.013     0.000     0.000    78.995
   08/11/2018 14:15:00      0.013     0.000     0.000    78.995
   08/11/2018 14:30:00      0.013     0.000     0.000    78.995
   08/11/2018 14:45:00      0.013     0.000     0.000    78.995
   08/11/2018 15:00:00      0.013     0.000     0.000    78.995
   08/11/2018 15:15:00      0.013     0.000     0.000    78.995
   08/11/2018 15:30:00      0.012     0.000     0.000    78.995
   08/11/2018 15:45:00      0.012     0.000     0.000    78.995
   08/11/2018 16:00:00      0.012     0.000     0.000    78.995
   08/11/2018 16:15:00      0.012     0.000     0.000    78.995
   08/11/2018 16:30:00      0.012     0.000     0.000    78.995
   08/11/2018 16:45:00      0.012     0.000     0.000    78.995
   08/11/2018 17:00:00      0.012     0.000     0.000    78.995
   08/11/2018 17:15:00      0.012     0.000     0.000    78.995
   08/11/2018 17:30:00      0.012     0.000     0.000    78.995
   08/11/2018 17:45:00      0.012     0.000     0.000    78.995
   08/11/2018 18:00:00      0.012     0.000     0.000    78.995
   08/11/2018 18:15:00      0.012     0.000     0.000    78.995
   08/11/2018 18:30:00      0.011     0.000     0.000    78.995
   08/11/2018 18:45:00      0.011     0.000     0.000    78.995
   08/11/2018 19:00:00      0.011     0.000     0.000    78.995
   08/11/2018 19:15:00      0.011     0.000     0.000    78.995
   08/11/2018 19:30:00      0.011     0.000     0.000    78.995
   08/11/2018 19:45:00      0.011     0.000     0.000    78.995
   08/11/2018 20:00:00      0.011     0.000     0.000    78.995
   08/11/2018 20:15:00      0.011     0.000     0.000    78.995
   08/11/2018 20:30:00      0.011     0.000     0.000    78.995
   08/11/2018 20:45:00      0.011     0.000     0.000    78.995
   08/11/2018 21:00:00      0.011     0.000     0.000    78.995
   08/11/2018 21:15:00      0.011     0.000     0.000    78.995
   08/11/2018 21:30:00      0.011     0.000     0.000    78.995
   08/11/2018 21:45:00      0.010     0.000     0.000    78.995
   08/11/2018 22:00:00      0.010     0.000     0.000    78.995
   08/11/2018 22:15:00      0.010     0.000     0.000    78.995
   08/11/2018 22:30:00      0.010     0.000     0.000    78.995
   08/11/2018 22:45:00      0.010     0.000     0.000    78.995
   08/11/2018 23:00:00      0.010     0.000     0.000    78.995
   08/11/2018 23:15:00      0.010     0.000     0.000    78.995
   08/11/2018 23:30:00      0.010     0.000     0.000    78.995
   08/11/2018 23:45:00      0.010     0.000     0.000    78.995
   08/12/2018 00:00:00      0.010     0.000     0.000    78.995
   08/12/2018 00:15:00      0.010     0.000     0.000    78.995
   08/12/2018 00:30:00      0.010     0.000     0.000    78.995
   08/12/2018 00:45:00      0.010     0.000     0.000    78.995
   08/12/2018 01:00:00      0.010     0.000     0.000    78.995
   08/12/2018 01:15:00      0.010     0.000     0.000    78.995
   08/12/2018 01:30:00      0.009     0.000     0.000    78.995
   08/12/2018 01:45:00      0.009     0.000     0.000    78.995
   08/12/2018 02:00:00      0.009     0.000     0.000    78.995
   08/12/2018 02:15:00      0.009     0.000     0.000    78.995
   08/12/2018 02:30:00      0.009     0.000     0.000    78.995
   08/12/2018 02:45:00      0.009     0.000     0.000    78.995
   08/12/2018 03:00:00      0.009     0.000     0.000    78.995
   08/12/2018 03:15:00      0.009     0.000     0.000    78.995
   08/12/2018 03:30:00      0.009     0.000     0.000    78.995
   08/12/2018 03:45:00      0.009     0.000     0.000    78.995
   08/12/2018 04:00:00      0.009     0.000     0.000    78.995
   08/12/2018 04:15:00      0.009     0.000     0.000    78.995
   08/12/2018 04:30:00      0.009     0.000     0.000    78.995
   08/12/2018 04:45:00      0.009     0.000     0.000    78.995
   08/12/2018 05:00:00      0.009     0.000     0.000    78.995
   08/12/2018 05:15:00      0.009     0.000     0.000    78.995
   08/12/2018 05:30:00      0.009     0.000     0.000    78.995
   08/12/2018 05:45:00      0.008     0.000     0.000    78.995
   08/12/2018 06:00:00      0.008     0.000     0.000    78.995
   08/12/2018 06:15:00      0.008     0.000     0.000    78.995
   08/12/2018 06:30:00      0.008     0.000     0.000    78.995
   08/12/2018 06:45:00      0.008     0.000     0.000    78.995
   08/12/2018 07:00:00      0.008     0.000     0.000    78.995
   08/12/2018 07:15:00      0.008     0.000     0.000    78.995
   08/12/2018 07:30:00      0.008     0.000     0.000    78.995
   08/12/2018 07:45:00      0.008     0.000     0.000    78.995
   08/12/2018 08:00:00      0.008     0.000     0.000    78.995
   08/12/2018 08:15:00      0.008     0.000     0.000    78.995
   08/12/2018 08:30:00      0.008     0.000     0.000    78.995
   08/12/2018 08:45:00      0.008     0.000     0.000    78.995
   08/12/2018 09:00:00      0.008     0.000     0.000    78.995
   08/12/2018 09:15:00      0.008     0.000     0.000    78.995
   08/12/2018 09:30:00      0.008     0.000     0.000    78.995
   08/12/2018 09:45:00      0.008     0.000     0.000    78.995
   08/12/2018 10:00:00      0.008     0.000     0.000    78.995
   08/12/2018 10:15:00      0.008     0.000     0.000    78.995
   08/12/2018 10:30:00      0.008     0.000     0.000    78.995
   08/12/2018 10:45:00      0.007     0.000     0.000    78.995
   08/12/2018 11:00:00      0.007     0.000     0.000    78.995
   08/12/2018 11:15:00      0.007     0.000     0.000    78.995
   08/12/2018 11:30:00      0.007     0.000     0.000    78.995
   08/12/2018 11:45:00      0.007     0.000     0.000    78.995
   08/12/2018 12:00:00      0.007     0.000     0.000    78.995
   08/12/2018 12:15:00      0.007     0.000     0.000    78.995
   08/12/2018 12:30:00      0.007     0.000     0.000    78.995
   08/12/2018 12:45:00      0.007     0.000     0.000    78.995
   08/12/2018 13:00:00      0.007     0.000     0.000    78.995
   08/12/2018 13:15:00      0.007     0.000     0.000    78.995
   08/12/2018 13:30:00      0.007     0.000     0.000    78.995
   08/12/2018 13:45:00      0.007     0.000     0.000    78.995
   08/12/2018 14:00:00      0.007     0.000     0.000    78.995
   08/12/2018 14:15:00      0.007     0.000     0.000    78.995
   08/12/2018 14:30:00      0.007     0.000     0.000    78.995
   08/12/2018 14:45:00      0.007     0.000     0.000    78.995
   08/12/2018 15:00:00      0.007     0.000     0.000    78.995
   08/12/2018 15:15:00      0.007     0.000     0.000    78.995
   08/12/2018 15:30:00      0.007     0.000     0.000    78.995
   08/12/2018 15:45:00      0.007     0.000     0.000    78.995
   08/12/2018 16:00:00      0.007     0.000     0.000    78.995
   08/12/2018 16:15:00      0.007     0.000     0.000    78.995
   08/12/2018 16:30:00      0.007     0.000     0.000    78.995
   08/12/2018 16:45:00      0.007     0.000     0.000    78.995
   08/12/2018 17:00:00      0.006     0.000     0.000    78.995
   08/12/2018 17:15:00      0.006     0.000     0.000    78.995
   08/12/2018 17:30:00      0.006     0.000     0.000    78.995
   08/12/2018 17:45:00      0.006     0.000     0.000    78.995
   08/12/2018 18:00:00      0.006     0.000     0.000    78.995
   08/12/2018 18:15:00      0.006     0.000     0.000    78.995
   08/12/2018 18:30:00      0.006     0.000     0.000    78.995
   08/12/2018 18:45:00      0.006     0.000     0.000    78.995
   08/12/2018 19:00:00      0.006     0.000     0.000    78.995
   08/12/2018 19:15:00      0.006     0.000     0.000    78.995
   08/12/2018 19:30:00      0.006     0.000     0.000    78.995
   08/12/2018 19:45:00      0.006     0.000     0.000    78.995
   08/12/2018 20:00:00      0.006     0.000     0.000    78.995
   08/12/2018 20:15:00      0.006     0.000     0.000    78.995
   08/12/2018 20:30:00      0.006     0.000     0.000    78.995
   08/12/2018 20:45:00      0.006     0.000     0.000    78.995
[...]
   10/28/2018 18:45:00      0.268     0.000     0.000    78.995
   10/28/2018 19:00:00      0.262     0.000     0.000    78.995
   10/28/2018 19:15:00      0.255     0.000     0.000    78.995
   10/28/2018 19:30:00      0.249     0.000     0.000    78.995
   10/28/2018 19:45:00      0.243     0.000     0.000    78.995
   10/28/2018 20:00:00      0.237     0.000     0.000    78.995
   10/28/2018 20:15:00      0.232     0.000     0.000    78.995
   10/28/2018 20:30:00      0.226     0.000     0.000    78.995
   10/28/2018 20:45:00      0.221     0.000     0.000    78.995
   10/28/2018 21:00:00      0.216     0.000     0.000    78.995
   10/28/2018 21:15:00      0.211     0.000     0.000    78.995
   10/28/2018 21:30:00      0.206     0.000     0.000    78.995
   10/28/2018 21:45:00      0.202     0.000     0.000    78.995
   10/28/2018 22:00:00      0.197     0.000     0.000    78.995
   10/28/2018 22:15:00      0.193     0.000     0.000    78.995
   10/28/2018 22:30:00      0.189     0.000     0.000    78.995
   10/28/2018 22:45:00      0.185     0.000     0.000    78.995
   10/28/2018 23:00:00      0.181     0.000     0.000    78.995
   10/28/2018 23:15:00      0.261     0.000     0.000    78.995
   10/28/2018 23:30:00      0.258     0.000     0.000    78.995
   10/28/2018 23:45:00      0.251     0.000     0.000    78.995
   10/29/2018 00:00:00      0.245     0.000     0.000    78.995
   10/29/2018 00:15:00      0.240     0.000     0.000    78.995
   10/29/2018 00:30:00      0.234     0.000     0.000    78.995
   10/29/2018 00:45:00      0.228     0.000     0.000    78.995
   10/29/2018 01:00:00      0.223     0.000     0.000    78.995
   10/29/2018 01:15:00      0.218     0.000     0.000    78.995
   10/29/2018 01:30:00      0.213     0.000     0.000    78.995
   10/29/2018 01:45:00      0.208     0.000     0.000    78.995
   10/29/2018 02:00:00      0.204     0.000     0.000    78.995
   10/29/2018 02:15:00      0.199     0.000     0.000    78.995
   10/29/2018 02:30:00      0.195     0.000     0.000    78.995
   10/29/2018 02:45:00      0.190     0.000     0.000    78.995
   10/29/2018 03:00:00      0.186     0.000     0.000    78.995
   10/29/2018 03:15:00      0.182     0.000     0.000    78.995
   10/29/2018 03:30:00      0.178     0.000     0.000    78.995
   10/29/2018 03:45:00      0.175     0.000     0.000    78.995
   10/29/2018 04:00:00      0.171     0.000     0.000    78.995
   10/29/2018 04:15:00      0.168     0.000     0.000    78.995
   10/29/2018 04:30:00      0.164     0.000     0.000    78.995
   10/29/2018 04:45:00      0.161     0.000     0.000    78.995
   10/29/2018 05:00:00      0.158     0.000     0.000    78.995
   10/29/2018 05:15:00      0.154     0.000     0.000    78.995
   10/29/2018 05:30:00      0.151     0.000     0.000    78.995
   10/29/2018 05:45:00      0.148     0.000     0.000    78.995
   10/29/2018 06:00:00      0.145     0.000     0.000    78.995
   10/29/2018 06:15:00      0.143     0.000     0.000    78.995
   10/29/2018 06:30:00      0.140     0.000     0.000    78.995
   10/29/2018 06:45:00      0.137     0.000     0.000    78.995
   10/29/2018 07:00:00      0.135     0.000     0.000    78.995
   10/29/2018 07:15:00      0.132     0.000     0.000    78.995
   10/29/2018 07:30:00      0.130     0.000     0.000    78.995
   10/29/2018 07:45:00      0.127     0.000     0.000    78.995
   10/29/2018 08:00:00      0.125     0.000     0.000    78.995
   10/29/2018 08:15:00      0.123     0.000     0.000    78.995
   10/29/2018 08:30:00      0.120     0.000     0.000    78.995
   10/29/2018 08:45:00      0.118     0.000     0.000    78.995
   10/29/2018 09:00:00      0.189     0.000     0.000    78.995
   10/29/2018 09:15:00      0.187     0.000     0.000    78.995
   10/29/2018 09:30:00      0.183     0.000     0.000    78.995
   10/29/2018 09:45:00      0.179     0.000     0.000    78.995
   10/29/2018 10:00:00      0.176     0.000     0.000    78.995
   10/29/2018 10:15:00      0.255     0.000     0.000    78.995
   10/29/2018 10:30:00      0.252     0.000     0.000    78.995
   10/29/2018 10:45:00      0.246     0.000     0.000    78.995
   10/29/2018 11:00:00      0.240     0.000     0.000    78.995
   10/29/2018 11:15:00      0.234     0.000     0.000    78.995
   10/29/2018 11:30:00      0.229     0.000     0.000    78.995
   10/29/2018 11:45:00      0.224     0.000     0.000    78.995
   10/29/2018 12:00:00      0.219     0.000     0.000    78.995
   10/29/2018 12:15:00      0.214     0.000     0.000    78.995
   10/29/2018 12:30:00      0.209     0.000     0.000    78.995
   10/29/2018 12:45:00      0.204     0.000     0.000    78.995
   10/29/2018 13:00:00      0.000     0.000     0.000    78.995
   10/29/2018 13:15:00      0.000     0.000     0.000    78.995
   10/29/2018 13:30:00      0.000     0.000     0.000    78.995
   10/29/2018 13:45:00      0.000     0.000     0.000    78.995
   10/29/2018 14:00:00      0.000     0.000     0.000    78.995
   10/29/2018 14:15:00      0.000     0.000     0.000    78.995
   10/29/2018 14:30:00      0.000     0.000     0.000    78.995
   10/29/2018 14:45:00      0.000     0.000     0.000    78.995
   10/29/2018 15:00:00      0.000     0.000     0.000    78.995
   10/29/2018 15:15:00      0.000     0.000     0.000    78.995
   10/29/2018 15:30:00      0.000     0.000     0.000    78.995
   10/29/2018 15:45:00      0.000     0.000     0.000    78.995
   10/29/2018 16:00:00      0.000     0.000     0.000    78.995
   10/29/2018 16:15:00      0.000     0.000     0.000    78.995
   10/29/2018 16:30:00      0.000     0.000     0.000    78.995
   10/29/2018 16:45:00      0.000     0.000     0.000    78.995
   10/29/2018 17:00:00      0.000     0.000     0.000    78.995
   10/29/2018 17:15:00      0.000     0.000     0.000    78.995
   10/29/2018 17:30:00      0.000     0.000     0.000    78.995
   10/29/2018 17:45:00      0.000     0.000     0.000    78.995
   10/29/2018 18:00:00      0.000     0.000     0.000    78.995
   10/29/2018 18:15:00      0.000     0.000     0.000    78.995
   10/29/2018 18:30:00      0.000     0.000     0.000    78.995
   10/29/2018 18:45:00      0.000     0.000     0.000    78.995
   10/29/2018 19:00:00      0.000     0.000     0.000    78.995
   10/29/2018 19:15:00      0.000     0.000     0.000    78.995
   10/29/2018 19:30:00      0.000     0.000     0.000    78.995
   10/29/2018 19:45:00      0.000     0.000     0.000    78.995
   10/29/2018 20:00:00      0.000     0.000     0.000    78.995
   10/29/2018 20:15:00      0.000     0.000     0.000    78.995
   10/29/2018 20:30:00      0.000     0.000     0.000    78.995
   10/29/2018 20:45:00      0.000     0.000     0.000    78.995
   10/29/2018 21:00:00      0.000     0.000     0.000    78.995
   10/29/2018 21:15:00      0.000     0.000     0.000    78.995
   10/29/2018 21:30:00      0.000     0.000     0.000    78.995
   10/29/2018 21:45:00      0.000     0.000     0.000    78.995
   10/29/2018 22:00:00      0.000     0.000     0.000    78.995
   10/29/2018 22:15:00      0.000     0.000     0.000    78.995
   10/29/2018 22:30:00      0.000     0.000     0.000    78.995
   10/29/2018 22:45:00      0.000     0.000     0.000    78.995
   10/29/2018 23:00:00      0.000     0.000     0.000    78.995
   10/29/2018 23:15:00      0.000     0.000     0.000    78.995
   10/29/2018 23:30:00      0.000     0.000     0.000    78.995
   10/29/2018 23:45:00      0.000     0.000     0.000    78.995
   10/30/2018 00:00:00      0.000     0.000     0.000    78.995
   10/30/2018 00:15:00      0.000     0.000     0.000    78.995
   10/30/2018 00:30:00      0.000     0.000     0.000    78.995
   10/30/2018 00:45:00      0.000     0.000     0.000    78.995
   10/30/2018 01:00:00      0.000     0.000     0.000    78.995
   10/30/2018 01:15:00      0.000     0.000     0.000    78.995
   10/30/2018 01:30:00      0.000     0.000     0.000    78.995
   10/30/2018 01:45:00      0.000     0.000     0.000    78.995
   10/30/2018 02:00:00      0.000     0.000     0.000    78.995
   10/30/2018 02:15:00      0.000     0.000     0.000    78.995
   10/30/2018 02:30:00      0.000     0.000     0.000    78.995
   10/30/2018 02:45:00      0.000     0.000     0.000    78.995
   10/30/2018 03:00:00      0.000     0.000     0.000    78.995
   10/30/2018 03:15:00      0.000     0.000     0.000    78.995
   10/30/2018 03:30:00      0.000     0.000     0.000    78.995
   10/30/2018 03:45:00      0.000     0.000     0.000    78.995
   10/30/2018 04:00:00      0.000     0.000     0.000    78.995
   10/30/2018 04:15:00      0.000     0.000     0.000    78.995
   10/30/2018 04:30:00      0.000     0.000     0.000    78.995
   10/30/2018 04:45:00      0.000     0.000     0.000    78.995
   10/30/2018 05:00:00      0.000     0.000     0.000    78.995
   10/30/2018 05:15:00      0.000     0.000     0.000    78.995
   10/30/2018 05:30:00      0.000     0.000     0.000    78.995
   10/30/2018 05:45:00      0.000     0.000     0.000    78.995
   10/30/2018 06:00:00      0.000     0.000     0.000    78.995
   10/30/2018 06:15:00      0.000     0.000     0.000    78.995
   10/30/2018 06:30:00      0.000     0.000     0.000    78.995
   10/30/2018 06:45:00      0.000     0.000     0.000    78.995
   10/30/2018 07:00:00      0.000     0.000     0.000    78.995
   10/30/2018 07:15:00      0.000     0.000     0.000    78.995
   10/30/2018 07:30:00      0.000     0.000     0.000    78.995
   10/30/2018 07:45:00      0.000     0.000     0.000    78.995
   10/30/2018 08:00:00      0.000     0.000     0.000    78.995
   10/30/2018 08:15:00      0.000     0.000     0.000    78.995
   10/30/2018 08:30:00      0.000     0.000     0.000    78.995
   10/30/2018 08:45:00      0.000     0.000     0.000    78.995
   10/30/2018 09:00:00      0.000     0.000     0.000    78.995
   10/30/2018 09:15:00      0.000     0.000     0.000    78.995
   10/30/2018 09:30:00      0.000     0.000     0.000    78.995
   10/30/2018 09:45:00      0.000     0.000     0.000    78.995
   10/30/2018 10:00:00      0.000     0.000     0.000    78.995
   10/30/2018 10:15:00      0.000     0.000     0.000    78.995
   10/30/2018 10:30:00      0.000     0.000     0.000    78.995
   10/30/2018 10:45:00      0.000     0.000     0.000    78.995
   10/30/2018 11:00:00      0.000     0.000     0.000    78.995
   10/30/2018 11:15:00      0.000     0.000     0.000    78.995
   10/30/2018 11:30:00      0.000     0.000     0.000    78.995
   10/30/2018 11:45:00      0.000     0.000     0.000    78.995
   10/30/2018 12:00:00      0.000     0.000     0.000    78.995
   10/30/2018 12:15:00      0.000     0.000     0.000    78.995
   10/30/2018 12:30:00      0.000     0.000     0.000    78.995
   10/30/2018 12:45:00      0.000     0.000     0.000    78.995
   10/30/2018 13:00:00      0.000     0.000     0.000    78.995
   10/30/2018 13:15:00      0.000     0.000     0.000    78.995
   10/30/2018 13:30:00      0.000     0.000     0.000    78.995
   10/30/2018 13:45:00      0.000     0.000     0.000    78.995
   10/30/2018 14:00:00      0.000     0.000     0.000    78.995
   10/30/2018 14:15:00      0.000     0.000     0.000    78.995
   10/30/2018 14:30:00      0.000     0.000     0.000    78.995
   10/30/2018 14:45:00      0.000     0.000     0.000    78.995
   10/30/2018 15:00:00      0.000     0.000     0.000    78.995
   10/30/2018 15:15:00      0.000     0.000     0.000    78.995
   10/30/2018 15:30:00      0.000     0.000     0.000    78.995
   10/30/2018 15:45:00      0.000     0.000     0.000    78.995
   10/30/2018 16:00:00      0.000     0.000     0.000    78.995
   10/30/2018 16:15:00      0.000     0.000     0.000    78.995
   10/30/2018 16:30:00      0.000     0.000     0.000    78.995
   10/30/2018 16:45:00      0.000     0.000     0.000    78.995
   10/30/2018 17:00:00      0.000     0.000     0.000    78.995
   10/30/2018 17:15:00      0.000     0.000     0.000    78.995
   10/30/2018 17:30:00      0.000     0.000     0.000    78.995
   10/30/2018 17:45:00      0.000     0.000     0.000    78.995
   10/30/2018 18:00:00      0.000     0.000     0.000    78.995
   10/30/2018 18:15:00      0.000     0.000     0.000    78.995
   10/30/2018 18:30:00      0.000     0.000     0.000    78.995
   10/30/2018 18:45:00      0.000     0.000     0.000    78.995
   10/30/2018 19:00:00      0.000     0.000     0.000    78.995
   10/30/2018 19:15:00      0.000     0.000     0.000    78.995
   10/30/2018 19:30:00      0.000     0.000     0.000    78.995
   10/30/2018 19:45:00      0.000     0.000     0.000    78.995
   10/30/2018 20:00:00      0.000     0.000     0.000    78.995
   10/30/2018 20:15:00      0.000     0.000     0.000    78.995
   10/30/2018 20:30:00      0.000     0.000     0.000    78.995
   10/30/2018 20:45:00      0.000     0.000     0.000    78.995
   10/30/2018 21:00:00      0.000     0.000     0.000    78.995
   10/30/2018 21:15:00      0.000     0.000     0.000    78.995
   10/30/2018 21:30:00      0.000     0.000     0.000    78.995
   10/30/2018 21:45:00      0.000     0.000     0.000    78.995
   10/30/2018 22:00:00      0.000     0.000     0.000    78.995
   10/30/2018 22:15:00      0.000     0.000     0.000    78.995
   10/30/2018 22:30:00      0.000     0.000     0.000    78.995
   10/30/2018 22:45:00      0.000     0.000     0.000    78.995
   10/30/2018 23:00:00      0.000     0.000     0.000    78.995
   10/30/2018 23:15:00      0.000     0.000     0.000    78.995
   10/30/2018 23:30:00      0.000     0.000     0.000    78.995
   10/30/2018 23:45:00      0.000     0.000     0.000    78.995
   10/31/2018 00:00:00      0.000     0.000     0.000    78.995
   10/31/2018 00:15:00      0.000     0.000     0.000    78.995
   10/31/2018 00:30:00      0.000     0.000     0.000    78.995
   10/31/2018 00:45:00      0.000     0.000     0.000    78.995
   10/31/2018 01:00:00      0.000     0.000     0.000    78.995
   10/31/2018 01:15:00      0.000     0.000     0.000    78.995
   10/31/2018 01:30:00      0.000     0.000     0.000    78.995
   10/31/2018 01:45:00      0.000     0.000     0.000    78.995
   10/31/2018 02:00:00      0.000     0.000     0.000    78.995
   10/31/2018 02:15:00      0.000     0.000     0.000    78.995
   10/31/2018 02:30:00      0.000     0.000     0.000    78.995
   10/31/2018 02:45:00      0.000     0.000     0.000    78.995
   10/31/2018 03:00:00      0.000     0.000     0.000    78.995
   10/31/2018 03:15:00      0.000     0.000     0.000    78.995
   10/31/2018 03:30:00      0.000     0.000     0.000    78.995
   10/31/2018 03:45:00      0.000     0.000     0.000    78.995
   10/31/2018 04:00:00      0.000     0.000     0.000    78.995
   10/31/2018 04:15:00      0.000     0.000     0.000    78.995
   10/31/2018 04:30:00      0.000     0.000     0.000    78.995
   10/31/2018 04:45:00      0.000     0.000     0.000    78.995
   10/31/2018 05:00:00      0.000     0.000     0.000    78.995
   10/31/2018 05:15:00      0.000     0.000     0.000    78.995
   10/31/2018 05:30:00      0.000     0.000     0.000    78.995
   10/31/2018 05:45:00      0.000     0.000     0.000    78.995
   10/31/2018 06:00:00      0.000     0.000     0.000    78.995
   10/31/2018 06:15:00      0.000     0.000     0.000    78.995
   10/31/2018 06:30:00      0.000     0.000     0.000    78.995
   10/31/2018 06:45:00      0.000     0.000     0.000    78.995
   10/31/2018 07:00:00      0.000     0.000     0.000    78.995
   10/31/2018 07:15:00      0.000     0.000     0.000    78.995
   10/31/2018 07:30:00      0.000     0.000     0.000    78.995
   10/31/2018 07:45:00      0.000     0.000     0.000    78.995
   10/31/2018 08:00:00      0.000     0.000     0.000    78.995
   10/31/2018 08:15:00      0.000     0.000     0.000    78.995
   10/31/2018 08:30:00      0.000     0.000     0.000    78.995
   10/31/2018 08:45:00      0.000     0.000     0.000    78.995
   10/31/2018 09:00:00      0.000     0.000     0.000    78.995
   10/31/2018 09:15:00      0.000     0.000     0.000    78.995
   10/31/2018 09:30:00      0.000     0.000     0.000    78.995
   10/31/2018 09:45:00      0.000     0.000     0.000    78.995
   10/31/2018 10:00:00      0.000     0.000     0.000    78.995
   10/31/2018 10:15:00      0.000     0.000     0.000    78.995
   10/31/2018 10:30:00      0.000     0.000     0.000    78.995
   10/31/2018 10:45:00      0.000     0.000     0.000    78.995
   10/31/2018 11:00:00      0.000     0.000     0.000    78.995
   10/31/2018 11:15:00      0.000     0.000     0.000    78.995
   10/31/2018 11:30:00      0.000     0.000     0.000    78.995
   10/31/2018 11:45:00      0.000     0.000     0.000    78.995
   10/31/2018 12:00:00      0.000     0.000     0.000    78.995
   10/31/2018 12:15:00      0.000     0.000     0.000    78.995
   10/31/2018 12:30:00      0.000     0.000     0.000    78.995
   10/31/2018 12:45:00      0.000     0.000     0.000    78.995
   10/31/2018 13:00:00      0.000     0.000     0.000    78.995
   10/31/2018 13:15:00      0.000     0.000     0.000    78.995
   10/31/2018 13:30:00      0.000     0.000     0.000    78.995
   10/31/2018 13:45:00      0.000     0.000     0.000    78.995
   10/31/2018 14:00:00      0.000     0.000     0.000    78.995
   10/31/2018 14:15:00      0.000     0.000     0.000    78.995
   10/31/2018 14:30:00      0.000     0.000     0.000    78.995
   10/31/2018 14:45:00      0.000     0.000     0.000    78.995
   10/31/2018 15:00:00      0.000     0.000     0.000    78.995
   10/31/2018 15:15:00      0.000     0.000     0.000    78.995
   10/31/2018 15:30:00      0.000     0.000     0.000    78.995
   10/31/2018 15:45:00      0.000     0.000     0.000    78.995
   10/31/2018 16:00:00      0.000     0.000     0.000    78.995
   10/31/2018 16:15:00      0.000     0.000     0.000    78.995
   10/31/2018 16:30:00      0.000     0.000     0.000    78.995
   10/31/2018 16:45:00      0.000     0.000     0.000    78.995
   10/31/2018 17:00:00      0.000     0.000     0.000    78.995
   10/31/2018 17:15:00      0.000     0.000     0.000    78.995
   10/31/2018 17:30:00      0.000     0.000     0.000    78.995
   10/31/2018 17:45:00      0.000     0.000     0.000    78.995
   10/31/2018 18:00:00      0.000     0.000     0.000    78.995
   10/31/2018 18:15:00      0.000     0.000     0.000    78.995
   10/31/2018 18:30:00      0.000     0.000     0.000    78.995
   10/31/2018 18:45:00      0.000     0.000     0.000    78.995
   10/31/2018 19:00:00      0.000     0.000     0.000    78.995
   10/31/2018 19:15:00      0.000     0.000     0.000    78.995
   10/31/2018 19:30:00      0.000     0.000     0.000    78.995
   10/31/2018 19:45:00      0.000     0.000     0.000    78.995
   10/31/2018 20:00:00      0.000     0.000     0.000    78.995
   10/31/2018 20:15:00      0.000     0.000     0.000    78.995
   10/31/2018 20:30:00      0.000     0.000     0.000    78.995
   10/31/2018 20:45:00      0.000     0.000     0.000    78.995
   10/31/2018 21:00:00      0.000     0.000     0.000    78.995
   10/31/2018 21:15:00      0.000     0.000     0.000    78.995
   10/31/2018 21:30:00      0.000     0.000     0.000    78.995
   10/31/2018 21:45:00      0.000     0.000     0.000    78.995
   10/31/2018 22:00:00      0.000     0.000     0.000    78.995
   10/31/2018 22:15:00      0.000     0.000     0.000    78.995
   10/31/2018 22:30:00      0.000     0.000     0.000    78.995
   10/31/2018 22:45:00      0.000     0.000     0.000    78.995
   10/31/2018 23:00:00      0.000     0.000     0.000    78.995
   10/31/2018 23:15:00      0.000     0.000     0.000    78.995
   10/31/2018 23:30:00      0.000     0.000     0.000    78.995
   10/31/2018 23:45:00      0.000     0.000     0.000    78.995
   11/01/2018 00:00:00      0.000     0.000     0.000    78.995
  

  Analysis begun on:  Mon Apr 19 20:45:43 2021
  Analysis ended on:  Mon Apr 19 20:45:44 2021
  Total elapsed time: 00:00:01