
  EPA STORM WATER MANAGEMENT MODEL - VERSION 5.1 (Build 5.1.013)
  --------------------------------------------------------------

  Scenario Run: BASE 
  
  
  *********************
  Rainfall File Summary
  *********************
  Station    First        Last         Recording   Periods    Periods    Periods
  ID         Date         Date         Frequency  w/Precip    Missing    Malfunc.
  -------------------------------------------------------------------------------
  rg_1       01/01/2000   01/02/2000      60 min       241          0          0

  
  *********************************************************
  NOTE: The summary statistics displayed in this report are
  based on results found at every computational time step,  
  not just on results from each reporting time step.
  *********************************************************
  
  ****************
  Analysis Options
  ****************
  Flow Units ............... CMS
  Process Models:
    Rainfall/Runoff ........ YES
    RDII ................... NO
    Snowmelt ............... NO
    Groundwater ............ NO
    Flow Routing ........... YES
    Ponding Allowed ........ NO
    Water Quality .......... NO
  Infiltration Method ...... MODIFIED_GREEN_AMPT
  Flow Routing Method ...... KINWAVE
  Starting Date ............ 09/23/2018 00:00:00
  Ending Date .............. 10/11/2018 00:00:00
  Antecedent Dry Days ...... 5.0
  Report Time Step ......... 00:05:00
  Wet Time Step ............ 00:15:00
  Dry Time Step ............ 01:00:00
  Routing Time Step ........ 60.00 sec
  
  
  **************************        Volume         Depth
  Runoff Quantity Continuity     hectare-m            mm
  **************************     ---------       -------
  Total Precipitation ......         0.000         0.000
  Evaporation Loss .........         0.000         0.000
  Infiltration Loss ........         0.000         0.000
  Surface Runoff ...........         0.000         0.000
  Final Storage ............         0.000         0.000
  Continuity Error (%) .....         0.000
  
  
  **************************        Volume        Volume
  Flow Routing Continuity        hectare-m      10^6 ltr
  **************************     ---------     ---------
  Dry Weather Inflow .......         0.000         0.000
  Wet Weather Inflow .......         0.000         0.000
  Groundwater Inflow .......         0.000         0.000
  RDII Inflow ..............         0.000         0.000
  External Inflow ..........         0.000         0.000
  External Outflow .........         0.000         0.000
  Flooding Loss ............         0.000         0.000
  Evaporation Loss .........         0.000         0.000
  Exfiltration Loss ........         0.000         0.000
  Initial Stored Volume ....         0.000         0.000
  Final Stored Volume ......         0.000         0.000
  Continuity Error (%) .....         0.000
  
  
  ********************************
  Highest Flow Instability Indexes
  ********************************
  All links are stable.
  
  
  *************************
  Routing Time Step Summary
  *************************
  Minimum Time Step           :    60.00 sec
  Average Time Step           :    60.00 sec
  Maximum Time Step           :    60.00 sec
  Percent in Steady State     :     0.00
  Average Iterations per Step :     1.00
  Percent Not Converging      :     0.00
  
  
  ***************************
  Subcatchment Runoff Summary
  ***************************
  
  ------------------------------------------------------------------------------------------------------------------------------
                            Total      Total      Total      Total     Imperv       Perv      Total       Total     Peak  Runoff
                           Precip      Runon       Evap      Infil     Runoff     Runoff     Runoff      Runoff   Runoff   Coeff
  Subcatchment                 mm         mm         mm         mm         mm         mm         mm    10^6 ltr      CMS
  ------------------------------------------------------------------------------------------------------------------------------
  S1                         0.00       0.00       0.00       0.00       0.00       0.00       0.00        0.00     0.00   0.000
  S2                         0.00       0.00       0.00       0.00       0.00       0.00       0.00        0.00     0.00   0.000
  S3                         0.00       0.00       0.00       0.00       0.00       0.00       0.00        0.00     0.00   0.000
  

  ***********************
  LID Performance Summary
  ***********************

  --------------------------------------------------------------------------------------------------------------------
                                         Total      Evap     Infil   Surface    Drain    Initial     Final  Continuity
                                        Inflow      Loss      Loss   Outflow   Outflow   Storage   Storage       Error
  Subcatchment      LID Control             mm        mm        mm        mm        mm        mm        mm           %
  --------------------------------------------------------------------------------------------------------------------
  S3                rb                    0.00      0.00      0.00      0.00      0.00      0.00      0.00      100.00
  
  ******************
  Node Depth Summary
  ******************
  
  ---------------------------------------------------------------------------------
                                 Average  Maximum  Maximum  Time of Max    Reported
                                   Depth    Depth      HGL   Occurrence   Max Depth
  Node                 Type       Meters   Meters   Meters  days hr:min      Meters
  ---------------------------------------------------------------------------------
  J3                   JUNCTION     0.00     0.00    93.00     0  00:00        0.00
  J1                   JUNCTION     0.00     0.00    96.00     0  00:00        0.00
  J4                   JUNCTION     0.00     0.00    88.00     0  00:00        0.00
  J2                   JUNCTION     0.00     0.00    90.00     0  00:00        0.00
  OUT1                 OUTFALL      0.00     0.00    85.00     0  00:00        0.00
  
  
  *******************
  Node Inflow Summary
  *******************
  
  -------------------------------------------------------------------------------------------------
                                  Maximum  Maximum                  Lateral       Total        Flow
                                  Lateral    Total  Time of Max      Inflow      Inflow     Balance
                                   Inflow   Inflow   Occurrence      Volume      Volume       Error
  Node                 Type           CMS      CMS  days hr:min    10^6 ltr    10^6 ltr     Percent
  -------------------------------------------------------------------------------------------------
  J3                   JUNCTION     0.000    0.000     0  00:00           0           0       0.000 ltr
  J1                   JUNCTION     0.000    0.000     0  00:00           0           0       0.000 ltr
  J4                   JUNCTION     0.000    0.000     0  00:00           0           0       0.000 ltr
  J2                   JUNCTION     0.000    0.000     0  00:00           0           0       0.000 ltr
  OUT1                 OUTFALL      0.000    0.000     0  00:00           0           0       0.000 ltr
  
  
  *********************
  Node Flooding Summary
  *********************
  
  No nodes were flooded.
  
  
  ***********************
  Outfall Loading Summary
  ***********************
  
  -----------------------------------------------------------
                         Flow       Avg       Max       Total
                         Freq      Flow      Flow      Volume
  Outfall Node           Pcnt       CMS       CMS    10^6 ltr
  -----------------------------------------------------------
  OUT1                   0.00     0.000     0.000       0.000
  -----------------------------------------------------------
  System                 0.00     0.000     0.000       0.000
  
  
  ********************
  Link Flow Summary
  ********************
  
  -----------------------------------------------------------------------------
                                 Maximum  Time of Max   Maximum    Max/    Max/
                                  |Flow|   Occurrence   |Veloc|    Full    Full
  Link                 Type          CMS  days hr:min     m/sec    Flow   Depth
  -----------------------------------------------------------------------------
  C3                   CONDUIT     0.000     0  00:00      0.00    0.00    0.00
  C4                   CONDUIT     0.000     0  00:00      0.00    0.00    0.00
  C2                   CONDUIT     0.000     0  00:00      0.00    0.00    0.00
  C1                   CONDUIT     0.000     0  00:00      0.00    0.00    0.00
  
  
  *************************
  Conduit Surcharge Summary
  *************************
  
  No conduits were surcharged.
  
  
  ********************
  Subcatchment Results
  ********************
  
  <<< Subcatchment S1 >>>
  ---------------------------------------------------
  Date        Time        Precip.    Losses    Runoff
                            mm/hr     mm/hr       CMS
  ---------------------------------------------------
   09/23/2018 00:05:00      0.000     0.000    0.0000
   09/23/2018 00:10:00      0.000     0.000    0.0000
   09/23/2018 00:15:00      0.000     0.000    0.0000
   09/23/2018 00:20:00      0.000     0.000    0.0000
   09/23/2018 00:25:00      0.000     0.000    0.0000
   09/23/2018 00:30:00      0.000     0.000    0.0000
   09/23/2018 00:35:00      0.000     0.000    0.0000
   09/23/2018 00:40:00      0.000     0.000    0.0000
   09/23/2018 00:45:00      0.000     0.000    0.0000
   09/23/2018 00:50:00      0.000     0.000    0.0000
   09/23/2018 00:55:00      0.000     0.000    0.0000
   09/23/2018 01:00:00      0.000     0.000    0.0000
   09/23/2018 01:05:00      0.000     0.000    0.0000
   09/23/2018 01:10:00      0.000     0.000    0.0000
   09/23/2018 01:15:00      0.000     0.000    0.0000
   09/23/2018 01:20:00      0.000     0.000    0.0000
   09/23/2018 01:25:00      0.000     0.000    0.0000
   09/23/2018 01:30:00      0.000     0.000    0.0000
   09/23/2018 01:35:00      0.000     0.000    0.0000
   09/23/2018 01:40:00      0.000     0.000    0.0000
   09/23/2018 01:45:00      0.000     0.000    0.0000
   09/23/2018 01:50:00      0.000     0.000    0.0000
   09/23/2018 01:55:00      0.000     0.000    0.0000
   09/23/2018 02:00:00      0.000     0.000    0.0000
   09/23/2018 02:05:00      0.000     0.000    0.0000
   09/23/2018 02:10:00      0.000     0.000    0.0000
   09/23/2018 02:15:00      0.000     0.000    0.0000
   09/23/2018 02:20:00      0.000     0.000    0.0000
   09/23/2018 02:25:00      0.000     0.000    0.0000
   09/23/2018 02:30:00      0.000     0.000    0.0000
   09/23/2018 02:35:00      0.000     0.000    0.0000
   09/23/2018 02:40:00      0.000     0.000    0.0000
   09/23/2018 02:45:00      0.000     0.000    0.0000
   09/23/2018 02:50:00      0.000     0.000    0.0000
   09/23/2018 02:55:00      0.000     0.000    0.0000
   09/23/2018 03:00:00      0.000     0.000    0.0000
   09/23/2018 03:05:00      0.000     0.000    0.0000
   09/23/2018 03:10:00      0.000     0.000    0.0000
   09/23/2018 03:15:00      0.000     0.000    0.0000
   09/23/2018 03:20:00      0.000     0.000    0.0000
   09/23/2018 03:25:00      0.000     0.000    0.0000
   09/23/2018 03:30:00      0.000     0.000    0.0000
   09/23/2018 03:35:00      0.000     0.000    0.0000
   09/23/2018 03:40:00      0.000     0.000    0.0000
   09/23/2018 03:45:00      0.000     0.000    0.0000
   09/23/2018 03:50:00      0.000     0.000    0.0000
   09/23/2018 03:55:00      0.000     0.000    0.0000
   09/23/2018 04:00:00      0.000     0.000    0.0000
   09/23/2018 04:05:00      0.000     0.000    0.0000
   09/23/2018 04:10:00      0.000     0.000    0.0000
   09/23/2018 04:15:00      0.000     0.000    0.0000
   09/23/2018 04:20:00      0.000     0.000    0.0000
   09/23/2018 04:25:00      0.000     0.000    0.0000
   09/23/2018 04:30:00      0.000     0.000    0.0000
   09/23/2018 04:35:00      0.000     0.000    0.0000
   09/23/2018 04:40:00      0.000     0.000    0.0000
   09/23/2018 04:45:00      0.000     0.000    0.0000
   09/23/2018 04:50:00      0.000     0.000    0.0000
   09/23/2018 04:55:00      0.000     0.000    0.0000
   09/23/2018 05:00:00      0.000     0.000    0.0000
   09/23/2018 05:05:00      0.000     0.000    0.0000
   09/23/2018 05:10:00      0.000     0.000    0.0000
   09/23/2018 05:15:00      0.000     0.000    0.0000
   09/23/2018 05:20:00      0.000     0.000    0.0000
   09/23/2018 05:25:00      0.000     0.000    0.0000
   09/23/2018 05:30:00      0.000     0.000    0.0000
   09/23/2018 05:35:00      0.000     0.000    0.0000
   09/23/2018 05:40:00      0.000     0.000    0.0000
   09/23/2018 05:45:00      0.000     0.000    0.0000
   09/23/2018 05:50:00      0.000     0.000    0.0000
   09/23/2018 05:55:00      0.000     0.000    0.0000
   09/23/2018 06:00:00      0.000     0.000    0.0000
   09/23/2018 06:05:00      0.000     0.000    0.0000
   09/23/2018 06:10:00      0.000     0.000    0.0000
   09/23/2018 06:15:00      0.000     0.000    0.0000
   09/23/2018 06:20:00      0.000     0.000    0.0000
   09/23/2018 06:25:00      0.000     0.000    0.0000
   09/23/2018 06:30:00      0.000     0.000    0.0000
   09/23/2018 06:35:00      0.000     0.000    0.0000
   09/23/2018 06:40:00      0.000     0.000    0.0000
   09/23/2018 06:45:00      0.000     0.000    0.0000
   09/23/2018 06:50:00      0.000     0.000    0.0000
   09/23/2018 06:55:00      0.000     0.000    0.0000
   09/23/2018 07:00:00      0.000     0.000    0.0000
   09/23/2018 07:05:00      0.000     0.000    0.0000
   09/23/2018 07:10:00      0.000     0.000    0.0000
   09/23/2018 07:15:00      0.000     0.000    0.0000
   09/23/2018 07:20:00      0.000     0.000    0.0000
   09/23/2018 07:25:00      0.000     0.000    0.0000
   09/23/2018 07:30:00      0.000     0.000    0.0000
   09/23/2018 07:35:00      0.000     0.000    0.0000
   09/23/2018 07:40:00      0.000     0.000    0.0000
   09/23/2018 07:45:00      0.000     0.000    0.0000
   09/23/2018 07:50:00      0.000     0.000    0.0000
   09/23/2018 07:55:00      0.000     0.000    0.0000
   09/23/2018 08:00:00      0.000     0.000    0.0000
   09/23/2018 08:05:00      0.000     0.000    0.0000
   09/23/2018 08:10:00      0.000     0.000    0.0000
   09/23/2018 08:15:00      0.000     0.000    0.0000
   09/23/2018 08:20:00      0.000     0.000    0.0000
   09/23/2018 08:25:00      0.000     0.000    0.0000
   09/23/2018 08:30:00      0.000     0.000    0.0000
   09/23/2018 08:35:00      0.000     0.000    0.0000
   09/23/2018 08:40:00      0.000     0.000    0.0000
   09/23/2018 08:45:00      0.000     0.000    0.0000
   09/23/2018 08:50:00      0.000     0.000    0.0000
   09/23/2018 08:55:00      0.000     0.000    0.0000
   09/23/2018 09:00:00      0.000     0.000    0.0000
   09/23/2018 09:05:00      0.000     0.000    0.0000
   09/23/2018 09:10:00      0.000     0.000    0.0000
   09/23/2018 09:15:00      0.000     0.000    0.0000
   09/23/2018 09:20:00      0.000     0.000    0.0000
   09/23/2018 09:25:00      0.000     0.000    0.0000
   09/23/2018 09:30:00      0.000     0.000    0.0000
   09/23/2018 09:35:00      0.000     0.000    0.0000
   09/23/2018 09:40:00      0.000     0.000    0.0000
   09/23/2018 09:45:00      0.000     0.000    0.0000
   09/23/2018 09:50:00      0.000     0.000    0.0000
   09/23/2018 09:55:00      0.000     0.000    0.0000
   09/23/2018 10:00:00      0.000     0.000    0.0000
   09/23/2018 10:05:00      0.000     0.000    0.0000
   09/23/2018 10:10:00      0.000     0.000    0.0000
   09/23/2018 10:15:00      0.000     0.000    0.0000
   09/23/2018 10:20:00      0.000     0.000    0.0000
   09/23/2018 10:25:00      0.000     0.000    0.0000
   09/23/2018 10:30:00      0.000     0.000    0.0000
   09/23/2018 10:35:00      0.000     0.000    0.0000
   09/23/2018 10:40:00      0.000     0.000    0.0000
   09/23/2018 10:45:00      0.000     0.000    0.0000
   09/23/2018 10:50:00      0.000     0.000    0.0000
   09/23/2018 10:55:00      0.000     0.000    0.0000
   09/23/2018 11:00:00      0.000     0.000    0.0000
   09/23/2018 11:05:00      0.000     0.000    0.0000
   09/23/2018 11:10:00      0.000     0.000    0.0000
   09/23/2018 11:15:00      0.000     0.000    0.0000
   09/23/2018 11:20:00      0.000     0.000    0.0000
   09/23/2018 11:25:00      0.000     0.000    0.0000
   09/23/2018 11:30:00      0.000     0.000    0.0000
   09/23/2018 11:35:00      0.000     0.000    0.0000
   09/23/2018 11:40:00      0.000     0.000    0.0000
   09/23/2018 11:45:00      0.000     0.000    0.0000
   09/23/2018 11:50:00      0.000     0.000    0.0000
   09/23/2018 11:55:00      0.000     0.000    0.0000
   09/23/2018 12:00:00      0.000     0.000    0.0000
   09/23/2018 12:05:00      0.000     0.000    0.0000
   09/23/2018 12:10:00      0.000     0.000    0.0000
   09/23/2018 12:15:00      0.000     0.000    0.0000
   09/23/2018 12:20:00      0.000     0.000    0.0000
   09/23/2018 12:25:00      0.000     0.000    0.0000
   09/23/2018 12:30:00      0.000     0.000    0.0000
   09/23/2018 12:35:00      0.000     0.000    0.0000
   09/23/2018 12:40:00      0.000     0.000    0.0000
   09/23/2018 12:45:00      0.000     0.000    0.0000
   09/23/2018 12:50:00      0.000     0.000    0.0000
   09/23/2018 12:55:00      0.000     0.000    0.0000
   09/23/2018 13:00:00      0.000     0.000    0.0000
   09/23/2018 13:05:00      0.000     0.000    0.0000
   09/23/2018 13:10:00      0.000     0.000    0.0000
   09/23/2018 13:15:00      0.000     0.000    0.0000
   09/23/2018 13:20:00      0.000     0.000    0.0000
   09/23/2018 13:25:00      0.000     0.000    0.0000
   09/23/2018 13:30:00      0.000     0.000    0.0000
   09/23/2018 13:35:00      0.000     0.000    0.0000
   09/23/2018 13:40:00      0.000     0.000    0.0000
   09/23/2018 13:45:00      0.000     0.000    0.0000
   09/23/2018 13:50:00      0.000     0.000    0.0000
   09/23/2018 13:55:00      0.000     0.000    0.0000
   09/23/2018 14:00:00      0.000     0.000    0.0000
   09/23/2018 14:05:00      0.000     0.000    0.0000
   09/23/2018 14:10:00      0.000     0.000    0.0000
   09/23/2018 14:15:00      0.000     0.000    0.0000
   09/23/2018 14:20:00      0.000     0.000    0.0000
   09/23/2018 14:25:00      0.000     0.000    0.0000
   09/23/2018 14:30:00      0.000     0.000    0.0000
   09/23/2018 14:35:00      0.000     0.000    0.0000
   09/23/2018 14:40:00      0.000     0.000    0.0000
   09/23/2018 14:45:00      0.000     0.000    0.0000
   09/23/2018 14:50:00      0.000     0.000    0.0000
   09/23/2018 14:55:00      0.000     0.000    0.0000
   09/23/2018 15:00:00      0.000     0.000    0.0000
   09/23/2018 15:05:00      0.000     0.000    0.0000
   09/23/2018 15:10:00      0.000     0.000    0.0000
   09/23/2018 15:15:00      0.000     0.000    0.0000
   09/23/2018 15:20:00      0.000     0.000    0.0000
   09/23/2018 15:25:00      0.000     0.000    0.0000
   09/23/2018 15:30:00      0.000     0.000    0.0000
   09/23/2018 15:35:00      0.000     0.000    0.0000
   09/23/2018 15:40:00      0.000     0.000    0.0000
   09/23/2018 15:45:00      0.000     0.000    0.0000
   09/23/2018 15:50:00      0.000     0.000    0.0000
   09/23/2018 15:55:00      0.000     0.000    0.0000
   09/23/2018 16:00:00      0.000     0.000    0.0000
   09/23/2018 16:05:00      0.000     0.000    0.0000
   09/23/2018 16:10:00      0.000     0.000    0.0000
   09/23/2018 16:15:00      0.000     0.000    0.0000
   09/23/2018 16:20:00      0.000     0.000    0.0000
   09/23/2018 16:25:00      0.000     0.000    0.0000
   09/23/2018 16:30:00      0.000     0.000    0.0000
   09/23/2018 16:35:00      0.000     0.000    0.0000
   09/23/2018 16:40:00      0.000     0.000    0.0000
   09/23/2018 16:45:00      0.000     0.000    0.0000
   09/23/2018 16:50:00      0.000     0.000    0.0000
   09/23/2018 16:55:00      0.000     0.000    0.0000
   09/23/2018 17:00:00      0.000     0.000    0.0000
   09/23/2018 17:05:00      0.000     0.000    0.0000
   09/23/2018 17:10:00      0.000     0.000    0.0000
   09/23/2018 17:15:00      0.000     0.000    0.0000
   09/23/2018 17:20:00      0.000     0.000    0.0000
   09/23/2018 17:25:00      0.000     0.000    0.0000
   09/23/2018 17:30:00      0.000     0.000    0.0000
   09/23/2018 17:35:00      0.000     0.000    0.0000
   09/23/2018 17:40:00      0.000     0.000    0.0000
   09/23/2018 17:45:00      0.000     0.000    0.0000
   09/23/2018 17:50:00      0.000     0.000    0.0000
   09/23/2018 17:55:00      0.000     0.000    0.0000
   09/23/2018 18:00:00      0.000     0.000    0.0000
   09/23/2018 18:05:00      0.000     0.000    0.0000
   09/23/2018 18:10:00      0.000     0.000    0.0000
   09/23/2018 18:15:00      0.000     0.000    0.0000
   09/23/2018 18:20:00      0.000     0.000    0.0000
   09/23/2018 18:25:00      0.000     0.000    0.0000
   09/23/2018 18:30:00      0.000     0.000    0.0000
   09/23/2018 18:35:00      0.000     0.000    0.0000
   09/23/2018 18:40:00      0.000     0.000    0.0000
   09/23/2018 18:45:00      0.000     0.000    0.0000
   09/23/2018 18:50:00      0.000     0.000    0.0000
   09/23/2018 18:55:00      0.000     0.000    0.0000
   09/23/2018 19:00:00      0.000     0.000    0.0000
   09/23/2018 19:05:00      0.000     0.000    0.0000
   09/23/2018 19:10:00      0.000     0.000    0.0000
   09/23/2018 19:15:00      0.000     0.000    0.0000
   09/23/2018 19:20:00      0.000     0.000    0.0000
   09/23/2018 19:25:00      0.000     0.000    0.0000
   09/23/2018 19:30:00      0.000     0.000    0.0000
   09/23/2018 19:35:00      0.000     0.000    0.0000
   09/23/2018 19:40:00      0.000     0.000    0.0000
   09/23/2018 19:45:00      0.000     0.000    0.0000
   09/23/2018 19:50:00      0.000     0.000    0.0000
   09/23/2018 19:55:00      0.000     0.000    0.0000
   09/23/2018 20:00:00      0.000     0.000    0.0000
   09/23/2018 20:05:00      0.000     0.000    0.0000
   09/23/2018 20:10:00      0.000     0.000    0.0000
   09/23/2018 20:15:00      0.000     0.000    0.0000
   09/23/2018 20:20:00      0.000     0.000    0.0000
   09/23/2018 20:25:00      0.000     0.000    0.0000
   09/23/2018 20:30:00      0.000     0.000    0.0000
   09/23/2018 20:35:00      0.000     0.000    0.0000
   09/23/2018 20:40:00      0.000     0.000    0.0000
   09/23/2018 20:45:00      0.000     0.000    0.0000
   09/23/2018 20:50:00      0.000     0.000    0.0000
   09/23/2018 20:55:00      0.000     0.000    0.0000
   09/23/2018 21:00:00      0.000     0.000    0.0000
   09/23/2018 21:05:00      0.000     0.000    0.0000
   09/23/2018 21:10:00      0.000     0.000    0.0000
   09/23/2018 21:15:00      0.000     0.000    0.0000
   09/23/2018 21:20:00      0.000     0.000    0.0000
   09/23/2018 21:25:00      0.000     0.000    0.0000
   09/23/2018 21:30:00      0.000     0.000    0.0000
   09/23/2018 21:35:00      0.000     0.000    0.0000
   09/23/2018 21:40:00      0.000     0.000    0.0000
   09/23/2018 21:45:00      0.000     0.000    0.0000
   09/23/2018 21:50:00      0.000     0.000    0.0000
   09/23/2018 21:55:00      0.000     0.000    0.0000
   09/23/2018 22:00:00      0.000     0.000    0.0000
   09/23/2018 22:05:00      0.000     0.000    0.0000
   09/23/2018 22:10:00      0.000     0.000    0.0000
   09/23/2018 22:15:00      0.000     0.000    0.0000
   09/23/2018 22:20:00      0.000     0.000    0.0000
   09/23/2018 22:25:00      0.000     0.000    0.0000
   09/23/2018 22:30:00      0.000     0.000    0.0000
   09/23/2018 22:35:00      0.000     0.000    0.0000
   09/23/2018 22:40:00      0.000     0.000    0.0000
   09/23/2018 22:45:00      0.000     0.000    0.0000
   09/23/2018 22:50:00      0.000     0.000    0.0000
   09/23/2018 22:55:00      0.000     0.000    0.0000
   09/23/2018 23:00:00      0.000     0.000    0.0000
   09/23/2018 23:05:00      0.000     0.000    0.0000
   09/23/2018 23:10:00      0.000     0.000    0.0000
   09/23/2018 23:15:00      0.000     0.000    0.0000
   09/23/2018 23:20:00      0.000     0.000    0.0000
   09/23/2018 23:25:00      0.000     0.000    0.0000
   09/23/2018 23:30:00      0.000     0.000    0.0000
   09/23/2018 23:35:00      0.000     0.000    0.0000
   09/23/2018 23:40:00      0.000     0.000    0.0000
   09/23/2018 23:45:00      0.000     0.000    0.0000
   09/23/2018 23:50:00      0.000     0.000    0.0000
   09/23/2018 23:55:00      0.000     0.000    0.0000
   09/24/2018 00:00:00      0.000     0.000    0.0000
   09/24/2018 00:05:00      0.000     0.000    0.0000
   09/24/2018 00:10:00      0.000     0.000    0.0000
   09/24/2018 00:15:00      0.000     0.000    0.0000
   09/24/2018 00:20:00      0.000     0.000    0.0000
   09/24/2018 00:25:00      0.000     0.000    0.0000
   09/24/2018 00:30:00      0.000     0.000    0.0000
   09/24/2018 00:35:00      0.000     0.000    0.0000
   09/24/2018 00:40:00      0.000     0.000    0.0000
   09/24/2018 00:45:00      0.000     0.000    0.0000
   09/24/2018 00:50:00      0.000     0.000    0.0000
   09/24/2018 00:55:00      0.000     0.000    0.0000
   09/24/2018 01:00:00      0.000     0.000    0.0000
   09/24/2018 01:05:00      0.000     0.000    0.0000
   09/24/2018 01:10:00      0.000     0.000    0.0000
   09/24/2018 01:15:00      0.000     0.000    0.0000
   09/24/2018 01:20:00      0.000     0.000    0.0000
   09/24/2018 01:25:00      0.000     0.000    0.0000
   09/24/2018 01:30:00      0.000     0.000    0.0000
   09/24/2018 01:35:00      0.000     0.000    0.0000
   09/24/2018 01:40:00      0.000     0.000    0.0000
   09/24/2018 01:45:00      0.000     0.000    0.0000
   09/24/2018 01:50:00      0.000     0.000    0.0000
   09/24/2018 01:55:00      0.000     0.000    0.0000
   09/24/2018 02:00:00      0.000     0.000    0.0000
   09/24/2018 02:05:00      0.000     0.000    0.0000
   09/24/2018 02:10:00      0.000     0.000    0.0000
   09/24/2018 02:15:00      0.000     0.000    0.0000
   09/24/2018 02:20:00      0.000     0.000    0.0000
   09/24/2018 02:25:00      0.000     0.000    0.0000
   09/24/2018 02:30:00      0.000     0.000    0.0000
   09/24/2018 02:35:00      0.000     0.000    0.0000
   09/24/2018 02:40:00      0.000     0.000    0.0000
   09/24/2018 02:45:00      0.000     0.000    0.0000
   09/24/2018 02:50:00      0.000     0.000    0.0000
   09/24/2018 02:55:00      0.000     0.000    0.0000
   09/24/2018 03:00:00      0.000     0.000    0.0000
   09/24/2018 03:05:00      0.000     0.000    0.0000
   09/24/2018 03:10:00      0.000     0.000    0.0000
   09/24/2018 03:15:00      0.000     0.000    0.0000
   09/24/2018 03:20:00      0.000     0.000    0.0000
   09/24/2018 03:25:00      0.000     0.000    0.0000
   09/24/2018 03:30:00      0.000     0.000    0.0000
   09/24/2018 03:35:00      0.000     0.000    0.0000
   09/24/2018 03:40:00      0.000     0.000    0.0000
   09/24/2018 03:45:00      0.000     0.000    0.0000
   09/24/2018 03:50:00      0.000     0.000    0.0000
   09/24/2018 03:55:00      0.000     0.000    0.0000
   09/24/2018 04:00:00      0.000     0.000    0.0000
   09/24/2018 04:05:00      0.000     0.000    0.0000
   09/24/2018 04:10:00      0.000     0.000    0.0000
   09/24/2018 04:15:00      0.000     0.000    0.0000
   09/24/2018 04:20:00      0.000     0.000    0.0000
   09/24/2018 04:25:00      0.000     0.000    0.0000
   09/24/2018 04:30:00      0.000     0.000    0.0000
   09/24/2018 04:35:00      0.000     0.000    0.0000
   09/24/2018 04:40:00      0.000     0.000    0.0000
   09/24/2018 04:45:00      0.000     0.000    0.0000
   09/24/2018 04:50:00      0.000     0.000    0.0000
   09/24/2018 04:55:00      0.000     0.000    0.0000
   09/24/2018 05:00:00      0.000     0.000    0.0000
   09/24/2018 05:05:00      0.000     0.000    0.0000
   09/24/2018 05:10:00      0.000     0.000    0.0000
   09/24/2018 05:15:00      0.000     0.000    0.0000
   09/24/2018 05:20:00      0.000     0.000    0.0000
   09/24/2018 05:25:00      0.000     0.000    0.0000
   09/24/2018 05:30:00      0.000     0.000    0.0000
   09/24/2018 05:35:00      0.000     0.000    0.0000
   09/24/2018 05:40:00      0.000     0.000    0.0000
   09/24/2018 05:45:00      0.000     0.000    0.0000
   09/24/2018 05:50:00      0.000     0.000    0.0000
   09/24/2018 05:55:00      0.000     0.000    0.0000
   09/24/2018 06:00:00      0.000     0.000    0.0000
   09/24/2018 06:05:00      0.000     0.000    0.0000
   09/24/2018 06:10:00      0.000     0.000    0.0000
   09/24/2018 06:15:00      0.000     0.000    0.0000
   09/24/2018 06:20:00      0.000     0.000    0.0000
   09/24/2018 06:25:00      0.000     0.000    0.0000
   09/24/2018 06:30:00      0.000     0.000    0.0000
   09/24/2018 06:35:00      0.000     0.000    0.0000
   09/24/2018 06:40:00      0.000     0.000    0.0000
   09/24/2018 06:45:00      0.000     0.000    0.0000
   09/24/2018 06:50:00      0.000     0.000    0.0000
   09/24/2018 06:55:00      0.000     0.000    0.0000
   09/24/2018 07:00:00      0.000     0.000    0.0000
   09/24/2018 07:05:00      0.000     0.000    0.0000
   09/24/2018 07:10:00      0.000     0.000    0.0000
   09/24/2018 07:15:00      0.000     0.000    0.0000
   09/24/2018 07:20:00      0.000     0.000    0.0000
   09/24/2018 07:25:00      0.000     0.000    0.0000
   09/24/2018 07:30:00      0.000     0.000    0.0000
   09/24/2018 07:35:00      0.000     0.000    0.0000
   09/24/2018 07:40:00      0.000     0.000    0.0000
   09/24/2018 07:45:00      0.000     0.000    0.0000
   09/24/2018 07:50:00      0.000     0.000    0.0000
   09/24/2018 07:55:00      0.000     0.000    0.0000
   09/24/2018 08:00:00      0.000     0.000    0.0000
   09/24/2018 08:05:00      0.000     0.000    0.0000
   09/24/2018 08:10:00      0.000     0.000    0.0000
   09/24/2018 08:15:00      0.000     0.000    0.0000
   09/24/2018 08:20:00      0.000     0.000    0.0000
   09/24/2018 08:25:00      0.000     0.000    0.0000
   09/24/2018 08:30:00      0.000     0.000    0.0000
   09/24/2018 08:35:00      0.000     0.000    0.0000
   09/24/2018 08:40:00      0.000     0.000    0.0000
   09/24/2018 08:45:00      0.000     0.000    0.0000
   09/24/2018 08:50:00      0.000     0.000    0.0000
   09/24/2018 08:55:00      0.000     0.000    0.0000
   09/24/2018 09:00:00      0.000     0.000    0.0000
   09/24/2018 09:05:00      0.000     0.000    0.0000
   09/24/2018 09:10:00      0.000     0.000    0.0000
   09/24/2018 09:15:00      0.000     0.000    0.0000
   09/24/2018 09:20:00      0.000     0.000    0.0000
   09/24/2018 09:25:00      0.000     0.000    0.0000
   09/24/2018 09:30:00      0.000     0.000    0.0000
   09/24/2018 09:35:00      0.000     0.000    0.0000
   09/24/2018 09:40:00      0.000     0.000    0.0000
   09/24/2018 09:45:00      0.000     0.000    0.0000
   09/24/2018 09:50:00      0.000     0.000    0.0000
   09/24/2018 09:55:00      0.000     0.000    0.0000
   09/24/2018 10:00:00      0.000     0.000    0.0000
   09/24/2018 10:05:00      0.000     0.000    0.0000
   09/24/2018 10:10:00      0.000     0.000    0.0000
   09/24/2018 10:15:00      0.000     0.000    0.0000
   09/24/2018 10:20:00      0.000     0.000    0.0000
   09/24/2018 10:25:00      0.000     0.000    0.0000
   09/24/2018 10:30:00      0.000     0.000    0.0000
   09/24/2018 10:35:00      0.000     0.000    0.0000
   09/24/2018 10:40:00      0.000     0.000    0.0000
   09/24/2018 10:45:00      0.000     0.000    0.0000
   09/24/2018 10:50:00      0.000     0.000    0.0000
   09/24/2018 10:55:00      0.000     0.000    0.0000
   09/24/2018 11:00:00      0.000     0.000    0.0000
   09/24/2018 11:05:00      0.000     0.000    0.0000
   09/24/2018 11:10:00      0.000     0.000    0.0000
   09/24/2018 11:15:00      0.000     0.000    0.0000
   09/24/2018 11:20:00      0.000     0.000    0.0000
   09/24/2018 11:25:00      0.000     0.000    0.0000
   09/24/2018 11:30:00      0.000     0.000    0.0000
   09/24/2018 11:35:00      0.000     0.000    0.0000
   09/24/2018 11:40:00      0.000     0.000    0.0000
   09/24/2018 11:45:00      0.000     0.000    0.0000
   09/24/2018 11:50:00      0.000     0.000    0.0000
   09/24/2018 11:55:00      0.000     0.000    0.0000
   09/24/2018 12:00:00      0.000     0.000    0.0000
   09/24/2018 12:05:00      0.000     0.000    0.0000
   09/24/2018 12:10:00      0.000     0.000    0.0000
   09/24/2018 12:15:00      0.000     0.000    0.0000
   09/24/2018 12:20:00      0.000     0.000    0.0000
   09/24/2018 12:25:00      0.000     0.000    0.0000
   09/24/2018 12:30:00      0.000     0.000    0.0000
   09/24/2018 12:35:00      0.000     0.000    0.0000
   09/24/2018 12:40:00      0.000     0.000    0.0000
   09/24/2018 12:45:00      0.000     0.000    0.0000
   09/24/2018 12:50:00      0.000     0.000    0.0000
   09/24/2018 12:55:00      0.000     0.000    0.0000
   09/24/2018 13:00:00      0.000     0.000    0.0000
   09/24/2018 13:05:00      0.000     0.000    0.0000
   09/24/2018 13:10:00      0.000     0.000    0.0000
   09/24/2018 13:15:00      0.000     0.000    0.0000
   09/24/2018 13:20:00      0.000     0.000    0.0000
   09/24/2018 13:25:00      0.000     0.000    0.0000
   09/24/2018 13:30:00      0.000     0.000    0.0000
   09/24/2018 13:35:00      0.000     0.000    0.0000
   09/24/2018 13:40:00      0.000     0.000    0.0000
   09/24/2018 13:45:00      0.000     0.000    0.0000
   09/24/2018 13:50:00      0.000     0.000    0.0000
   09/24/2018 13:55:00      0.000     0.000    0.0000
   09/24/2018 14:00:00      0.000     0.000    0.0000
   09/24/2018 14:05:00      0.000     0.000    0.0000
   09/24/2018 14:10:00      0.000     0.000    0.0000
   09/24/2018 14:15:00      0.000     0.000    0.0000
   09/24/2018 14:20:00      0.000     0.000    0.0000
   09/24/2018 14:25:00      0.000     0.000    0.0000
   09/24/2018 14:30:00      0.000     0.000    0.0000
   09/24/2018 14:35:00      0.000     0.000    0.0000
   09/24/2018 14:40:00      0.000     0.000    0.0000
   09/24/2018 14:45:00      0.000     0.000    0.0000
   09/24/2018 14:50:00      0.000     0.000    0.0000
   09/24/2018 14:55:00      0.000     0.000    0.0000
   09/24/2018 15:00:00      0.000     0.000    0.0000
   09/24/2018 15:05:00      0.000     0.000    0.0000
   09/24/2018 15:10:00      0.000     0.000    0.0000
   09/24/2018 15:15:00      0.000     0.000    0.0000
   09/24/2018 15:20:00      0.000     0.000    0.0000
   09/24/2018 15:25:00      0.000     0.000    0.0000
   09/24/2018 15:30:00      0.000     0.000    0.0000
   09/24/2018 15:35:00      0.000     0.000    0.0000
   09/24/2018 15:40:00      0.000     0.000    0.0000
   09/24/2018 15:45:00      0.000     0.000    0.0000
   09/24/2018 15:50:00      0.000     0.000    0.0000
   09/24/2018 15:55:00      0.000     0.000    0.0000
   09/24/2018 16:00:00      0.000     0.000    0.0000
   09/24/2018 16:05:00      0.000     0.000    0.0000
   09/24/2018 16:10:00      0.000     0.000    0.0000
   09/24/2018 16:15:00      0.000     0.000    0.0000
   09/24/2018 16:20:00      0.000     0.000    0.0000
   09/24/2018 16:25:00      0.000     0.000    0.0000
   09/24/2018 16:30:00      0.000     0.000    0.0000
   09/24/2018 16:35:00      0.000     0.000    0.0000
   09/24/2018 16:40:00      0.000     0.000    0.0000
   09/24/2018 16:45:00      0.000     0.000    0.0000
   09/24/2018 16:50:00      0.000     0.000    0.0000
   09/24/2018 16:55:00      0.000     0.000    0.0000
   09/24/2018 17:00:00      0.000     0.000    0.0000
   09/24/2018 17:05:00      0.000     0.000    0.0000
   09/24/2018 17:10:00      0.000     0.000    0.0000
   09/24/2018 17:15:00      0.000     0.000    0.0000
   09/24/2018 17:20:00      0.000     0.000    0.0000
   09/24/2018 17:25:00      0.000     0.000    0.0000
   09/24/2018 17:30:00      0.000     0.000    0.0000
   09/24/2018 17:35:00      0.000     0.000    0.0000
   09/24/2018 17:40:00      0.000     0.000    0.0000
   09/24/2018 17:45:00      0.000     0.000    0.0000
   09/24/2018 17:50:00      0.000     0.000    0.0000
   09/24/2018 17:55:00      0.000     0.000    0.0000
   09/24/2018 18:00:00      0.000     0.000    0.0000
   09/24/2018 18:05:00      0.000     0.000    0.0000
   09/24/2018 18:10:00      0.000     0.000    0.0000
   09/24/2018 18:15:00      0.000     0.000    0.0000
   09/24/2018 18:20:00      0.000     0.000    0.0000
   09/24/2018 18:25:00      0.000     0.000    0.0000
   09/24/2018 18:30:00      0.000     0.000    0.0000
   09/24/2018 18:35:00      0.000     0.000    0.0000
   09/24/2018 18:40:00      0.000     0.000    0.0000
   09/24/2018 18:45:00      0.000     0.000    0.0000
   09/24/2018 18:50:00      0.000     0.000    0.0000
   09/24/2018 18:55:00      0.000     0.000    0.0000
   09/24/2018 19:00:00      0.000     0.000    0.0000
   09/24/2018 19:05:00      0.000     0.000    0.0000
   09/24/2018 19:10:00      0.000     0.000    0.0000
   09/24/2018 19:15:00      0.000     0.000    0.0000
   09/24/2018 19:20:00      0.000     0.000    0.0000
   09/24/2018 19:25:00      0.000     0.000    0.0000
   09/24/2018 19:30:00      0.000     0.000    0.0000
   09/24/2018 19:35:00      0.000     0.000    0.0000
   09/24/2018 19:40:00      0.000     0.000    0.0000
   09/24/2018 19:45:00      0.000     0.000    0.0000
   09/24/2018 19:50:00      0.000     0.000    0.0000
   09/24/2018 19:55:00      0.000     0.000    0.0000
   09/24/2018 20:00:00      0.000     0.000    0.0000
   09/24/2018 20:05:00      0.000     0.000    0.0000
   09/24/2018 20:10:00      0.000     0.000    0.0000
   09/24/2018 20:15:00      0.000     0.000    0.0000
   09/24/2018 20:20:00      0.000     0.000    0.0000
   09/24/2018 20:25:00      0.000     0.000    0.0000
   09/24/2018 20:30:00      0.000     0.000    0.0000
   09/24/2018 20:35:00      0.000     0.000    0.0000
   09/24/2018 20:40:00      0.000     0.000    0.0000
   09/24/2018 20:45:00      0.000     0.000    0.0000
   09/24/2018 20:50:00      0.000     0.000    0.0000
   09/24/2018 20:55:00      0.000     0.000    0.0000
   09/24/2018 21:00:00      0.000     0.000    0.0000
   09/24/2018 21:05:00      0.000     0.000    0.0000
   09/24/2018 21:10:00      0.000     0.000    0.0000
   09/24/2018 21:15:00      0.000     0.000    0.0000
   09/24/2018 21:20:00      0.000     0.000    0.0000
   09/24/2018 21:25:00      0.000     0.000    0.0000
   09/24/2018 21:30:00      0.000     0.000    0.0000
   09/24/2018 21:35:00      0.000     0.000    0.0000
   09/24/2018 21:40:00      0.000     0.000    0.0000
   09/24/2018 21:45:00      0.000     0.000    0.0000
   09/24/2018 21:50:00      0.000     0.000    0.0000
   09/24/2018 21:55:00      0.000     0.000    0.0000
   09/24/2018 22:00:00      0.000     0.000    0.0000
   09/24/2018 22:05:00      0.000     0.000    0.0000
   09/24/2018 22:10:00      0.000     0.000    0.0000
   09/24/2018 22:15:00      0.000     0.000    0.0000
   09/24/2018 22:20:00      0.000     0.000    0.0000
   09/24/2018 22:25:00      0.000     0.000    0.0000
   09/24/2018 22:30:00      0.000     0.000    0.0000
   09/24/2018 22:35:00      0.000     0.000    0.0000
   09/24/2018 22:40:00      0.000     0.000    0.0000
   09/24/2018 22:45:00      0.000     0.000    0.0000
   09/24/2018 22:50:00      0.000     0.000    0.0000
   09/24/2018 22:55:00      0.000     0.000    0.0000
   09/24/2018 23:00:00      0.000     0.000    0.0000
   09/24/2018 23:05:00      0.000     0.000    0.0000
   09/24/2018 23:10:00      0.000     0.000    0.0000
   09/24/2018 23:15:00      0.000     0.000    0.0000
   09/24/2018 23:20:00      0.000     0.000    0.0000
   09/24/2018 23:25:00      0.000     0.000    0.0000
   09/24/2018 23:30:00      0.000     0.000    0.0000
   09/24/2018 23:35:00      0.000     0.000    0.0000
   09/24/2018 23:40:00      0.000     0.000    0.0000
   09/24/2018 23:45:00      0.000     0.000    0.0000
   09/24/2018 23:50:00      0.000     0.000    0.0000
   09/24/2018 23:55:00      0.000     0.000    0.0000
   09/25/2018 00:00:00      0.000     0.000    0.0000
   09/25/2018 00:05:00      0.000     0.000    0.0000
   09/25/2018 00:10:00      0.000     0.000    0.0000
   09/25/2018 00:15:00      0.000     0.000    0.0000
   09/25/2018 00:20:00      0.000     0.000    0.0000
   09/25/2018 00:25:00      0.000     0.000    0.0000
   09/25/2018 00:30:00      0.000     0.000    0.0000
   09/25/2018 00:35:00      0.000     0.000    0.0000
   09/25/2018 00:40:00      0.000     0.000    0.0000
   09/25/2018 00:45:00      0.000     0.000    0.0000
   09/25/2018 00:50:00      0.000     0.000    0.0000
   09/25/2018 00:55:00      0.000     0.000    0.0000
   09/25/2018 01:00:00      0.000     0.000    0.0000
   09/25/2018 01:05:00      0.000     0.000    0.0000
   09/25/2018 01:10:00      0.000     0.000    0.0000
   09/25/2018 01:15:00      0.000     0.000    0.0000
   09/25/2018 01:20:00      0.000     0.000    0.0000
   09/25/2018 01:25:00      0.000     0.000    0.0000
   09/25/2018 01:30:00      0.000     0.000    0.0000
   09/25/2018 01:35:00      0.000     0.000    0.0000
   09/25/2018 01:40:00      0.000     0.000    0.0000
   09/25/2018 01:45:00      0.000     0.000    0.0000
   09/25/2018 01:50:00      0.000     0.000    0.0000
   09/25/2018 01:55:00      0.000     0.000    0.0000
   09/25/2018 02:00:00      0.000     0.000    0.0000
   09/25/2018 02:05:00      0.000     0.000    0.0000
   09/25/2018 02:10:00      0.000     0.000    0.0000
   09/25/2018 02:15:00      0.000     0.000    0.0000
   09/25/2018 02:20:00      0.000     0.000    0.0000
   09/25/2018 02:25:00      0.000     0.000    0.0000
   09/25/2018 02:30:00      0.000     0.000    0.0000
   09/25/2018 02:35:00      0.000     0.000    0.0000
   09/25/2018 02:40:00      0.000     0.000    0.0000
   09/25/2018 02:45:00      0.000     0.000    0.0000
   09/25/2018 02:50:00      0.000     0.000    0.0000
   09/25/2018 02:55:00      0.000     0.000    0.0000
   09/25/2018 03:00:00      0.000     0.000    0.0000
   09/25/2018 03:05:00      0.000     0.000    0.0000
   09/25/2018 03:10:00      0.000     0.000    0.0000
   09/25/2018 03:15:00      0.000     0.000    0.0000
   09/25/2018 03:20:00      0.000     0.000    0.0000
   09/25/2018 03:25:00      0.000     0.000    0.0000
   09/25/2018 03:30:00      0.000     0.000    0.0000
   09/25/2018 03:35:00      0.000     0.000    0.0000
   09/25/2018 03:40:00      0.000     0.000    0.0000
   09/25/2018 03:45:00      0.000     0.000    0.0000
   09/25/2018 03:50:00      0.000     0.000    0.0000
   09/25/2018 03:55:00      0.000     0.000    0.0000
   09/25/2018 04:00:00      0.000     0.000    0.0000
   09/25/2018 04:05:00      0.000     0.000    0.0000
   09/25/2018 04:10:00      0.000     0.000    0.0000
   09/25/2018 04:15:00      0.000     0.000    0.0000
   09/25/2018 04:20:00      0.000     0.000    0.0000
   09/25/2018 04:25:00      0.000     0.000    0.0000
   09/25/2018 04:30:00      0.000     0.000    0.0000
   09/25/2018 04:35:00      0.000     0.000    0.0000
   09/25/2018 04:40:00      0.000     0.000    0.0000
   09/25/2018 04:45:00      0.000     0.000    0.0000
   09/25/2018 04:50:00      0.000     0.000    0.0000
   09/25/2018 04:55:00      0.000     0.000    0.0000
   09/25/2018 05:00:00      0.000     0.000    0.0000
   09/25/2018 05:05:00      0.000     0.000    0.0000
   09/25/2018 05:10:00      0.000     0.000    0.0000
   09/25/2018 05:15:00      0.000     0.000    0.0000
   09/25/2018 05:20:00      0.000     0.000    0.0000
   09/25/2018 05:25:00      0.000     0.000    0.0000
   09/25/2018 05:30:00      0.000     0.000    0.0000
   09/25/2018 05:35:00      0.000     0.000    0.0000
   09/25/2018 05:40:00      0.000     0.000    0.0000
   09/25/2018 05:45:00      0.000     0.000    0.0000
   09/25/2018 05:50:00      0.000     0.000    0.0000
   09/25/2018 05:55:00      0.000     0.000    0.0000
   09/25/2018 06:00:00      0.000     0.000    0.0000
   09/25/2018 06:05:00      0.000     0.000    0.0000
   09/25/2018 06:10:00      0.000     0.000    0.0000
   09/25/2018 06:15:00      0.000     0.000    0.0000
   09/25/2018 06:20:00      0.000     0.000    0.0000
   09/25/2018 06:25:00      0.000     0.000    0.0000
   09/25/2018 06:30:00      0.000     0.000    0.0000
   09/25/2018 06:35:00      0.000     0.000    0.0000
   09/25/2018 06:40:00      0.000     0.000    0.0000
   09/25/2018 06:45:00      0.000     0.000    0.0000
   09/25/2018 06:50:00      0.000     0.000    0.0000
   09/25/2018 06:55:00      0.000     0.000    0.0000
   09/25/2018 07:00:00      0.000     0.000    0.0000
   09/25/2018 07:05:00      0.000     0.000    0.0000
   09/25/2018 07:10:00      0.000     0.000    0.0000
   09/25/2018 07:15:00      0.000     0.000    0.0000
   09/25/2018 07:20:00      0.000     0.000    0.0000
   09/25/2018 07:25:00      0.000     0.000    0.0000
   09/25/2018 07:30:00      0.000     0.000    0.0000
   09/25/2018 07:35:00      0.000     0.000    0.0000
   09/25/2018 07:40:00      0.000     0.000    0.0000
   09/25/2018 07:45:00      0.000     0.000    0.0000
   09/25/2018 07:50:00      0.000     0.000    0.0000
   09/25/2018 07:55:00      0.000     0.000    0.0000
   09/25/2018 08:00:00      0.000     0.000    0.0000
   09/25/2018 08:05:00      0.000     0.000    0.0000
   09/25/2018 08:10:00      0.000     0.000    0.0000
   09/25/2018 08:15:00      0.000     0.000    0.0000
   09/25/2018 08:20:00      0.000     0.000    0.0000
   09/25/2018 08:25:00      0.000     0.000    0.0000
   09/25/2018 08:30:00      0.000     0.000    0.0000
   09/25/2018 08:35:00      0.000     0.000    0.0000
   09/25/2018 08:40:00      0.000     0.000    0.0000
   09/25/2018 08:45:00      0.000     0.000    0.0000
   09/25/2018 08:50:00      0.000     0.000    0.0000
   09/25/2018 08:55:00      0.000     0.000    0.0000
   09/25/2018 09:00:00      0.000     0.000    0.0000
   09/25/2018 09:05:00      0.000     0.000    0.0000
   09/25/2018 09:10:00      0.000     0.000    0.0000
   09/25/2018 09:15:00      0.000     0.000    0.0000
   09/25/2018 09:20:00      0.000     0.000    0.0000
   09/25/2018 09:25:00      0.000     0.000    0.0000
   09/25/2018 09:30:00      0.000     0.000    0.0000
   09/25/2018 09:35:00      0.000     0.000    0.0000
   09/25/2018 09:40:00      0.000     0.000    0.0000
   09/25/2018 09:45:00      0.000     0.000    0.0000
   09/25/2018 09:50:00      0.000     0.000    0.0000
   09/25/2018 09:55:00      0.000     0.000    0.0000
   09/25/2018 10:00:00      0.000     0.000    0.0000
   09/25/2018 10:05:00      0.000     0.000    0.0000
   09/25/2018 10:10:00      0.000     0.000    0.0000
   09/25/2018 10:15:00      0.000     0.000    0.0000
   09/25/2018 10:20:00      0.000     0.000    0.0000
   09/25/2018 10:25:00      0.000     0.000    0.0000
   09/25/2018 10:30:00      0.000     0.000    0.0000
   09/25/2018 10:35:00      0.000     0.000    0.0000
   09/25/2018 10:40:00      0.000     0.000    0.0000
   09/25/2018 10:45:00      0.000     0.000    0.0000
   09/25/2018 10:50:00      0.000     0.000    0.0000
   09/25/2018 10:55:00      0.000     0.000    0.0000
   09/25/2018 11:00:00      0.000     0.000    0.0000
   09/25/2018 11:05:00      0.000     0.000    0.0000
   09/25/2018 11:10:00      0.000     0.000    0.0000
   09/25/2018 11:15:00      0.000     0.000    0.0000
   09/25/2018 11:20:00      0.000     0.000    0.0000
   09/25/2018 11:25:00      0.000     0.000    0.0000
   09/25/2018 11:30:00      0.000     0.000    0.0000
   09/25/2018 11:35:00      0.000     0.000    0.0000
   09/25/2018 11:40:00      0.000     0.000    0.0000
   09/25/2018 11:45:00      0.000     0.000    0.0000
   09/25/2018 11:50:00      0.000     0.000    0.0000
   09/25/2018 11:55:00      0.000     0.000    0.0000
   09/25/2018 12:00:00      0.000     0.000    0.0000
   09/25/2018 12:05:00      0.000     0.000    0.0000
   09/25/2018 12:10:00      0.000     0.000    0.0000
   09/25/2018 12:15:00      0.000     0.000    0.0000
   09/25/2018 12:20:00      0.000     0.000    0.0000
   09/25/2018 12:25:00      0.000     0.000    0.0000
   09/25/2018 12:30:00      0.000     0.000    0.0000
   09/25/2018 12:35:00      0.000     0.000    0.0000
   09/25/2018 12:40:00      0.000     0.000    0.0000
   09/25/2018 12:45:00      0.000     0.000    0.0000
   09/25/2018 12:50:00      0.000     0.000    0.0000
   09/25/2018 12:55:00      0.000     0.000    0.0000
   09/25/2018 13:00:00      0.000     0.000    0.0000
   09/25/2018 13:05:00      0.000     0.000    0.0000
   09/25/2018 13:10:00      0.000     0.000    0.0000
   09/25/2018 13:15:00      0.000     0.000    0.0000
   09/25/2018 13:20:00      0.000     0.000    0.0000
   09/25/2018 13:25:00      0.000     0.000    0.0000
   09/25/2018 13:30:00      0.000     0.000    0.0000
   09/25/2018 13:35:00      0.000     0.000    0.0000
   09/25/2018 13:40:00      0.000     0.000    0.0000
   09/25/2018 13:45:00      0.000     0.000    0.0000
   09/25/2018 13:50:00      0.000     0.000    0.0000
   09/25/2018 13:55:00      0.000     0.000    0.0000
   09/25/2018 14:00:00      0.000     0.000    0.0000
   09/25/2018 14:05:00      0.000     0.000    0.0000
   09/25/2018 14:10:00      0.000     0.000    0.0000
   09/25/2018 14:15:00      0.000     0.000    0.0000
   09/25/2018 14:20:00      0.000     0.000    0.0000
   09/25/2018 14:25:00      0.000     0.000    0.0000
   09/25/2018 14:30:00      0.000     0.000    0.0000
   09/25/2018 14:35:00      0.000     0.000    0.0000
   09/25/2018 14:40:00      0.000     0.000    0.0000
   09/25/2018 14:45:00      0.000     0.000    0.0000
   09/25/2018 14:50:00      0.000     0.000    0.0000
   09/25/2018 14:55:00      0.000     0.000    0.0000
   09/25/2018 15:00:00      0.000     0.000    0.0000
   09/25/2018 15:05:00      0.000     0.000    0.0000
   09/25/2018 15:10:00      0.000     0.000    0.0000
   09/25/2018 15:15:00      0.000     0.000    0.0000
   09/25/2018 15:20:00      0.000     0.000    0.0000
   09/25/2018 15:25:00      0.000     0.000    0.0000
   09/25/2018 15:30:00      0.000     0.000    0.0000
   09/25/2018 15:35:00      0.000     0.000    0.0000
   09/25/2018 15:40:00      0.000     0.000    0.0000
   09/25/2018 15:45:00      0.000     0.000    0.0000
   09/25/2018 15:50:00      0.000     0.000    0.0000
   09/25/2018 15:55:00      0.000     0.000    0.0000
   09/25/2018 16:00:00      0.000     0.000    0.0000
   09/25/2018 16:05:00      0.000     0.000    0.0000
   09/25/2018 16:10:00      0.000     0.000    0.0000
   09/25/2018 16:15:00      0.000     0.000    0.0000
   09/25/2018 16:20:00      0.000     0.000    0.0000
   09/25/2018 16:25:00      0.000     0.000    0.0000
   09/25/2018 16:30:00      0.000     0.000    0.0000
   09/25/2018 16:35:00      0.000     0.000    0.0000
   09/25/2018 16:40:00      0.000     0.000    0.0000
   09/25/2018 16:45:00      0.000     0.000    0.0000
   09/25/2018 16:50:00      0.000     0.000    0.0000
   09/25/2018 16:55:00      0.000     0.000    0.0000
   09/25/2018 17:00:00      0.000     0.000    0.0000
   09/25/2018 17:05:00      0.000     0.000    0.0000
   09/25/2018 17:10:00      0.000     0.000    0.0000
   09/25/2018 17:15:00      0.000     0.000    0.0000
   09/25/2018 17:20:00      0.000     0.000    0.0000
   09/25/2018 17:25:00      0.000     0.000    0.0000
   09/25/2018 17:30:00      0.000     0.000    0.0000
   09/25/2018 17:35:00      0.000     0.000    0.0000
   09/25/2018 17:40:00      0.000     0.000    0.0000
   09/25/2018 17:45:00      0.000     0.000    0.0000
   09/25/2018 17:50:00      0.000     0.000    0.0000
   09/25/2018 17:55:00      0.000     0.000    0.0000
   09/25/2018 18:00:00      0.000     0.000    0.0000
   09/25/2018 18:05:00      0.000     0.000    0.0000
   09/25/2018 18:10:00      0.000     0.000    0.0000
   09/25/2018 18:15:00      0.000     0.000    0.0000
   09/25/2018 18:20:00      0.000     0.000    0.0000
   09/25/2018 18:25:00      0.000     0.000    0.0000
   09/25/2018 18:30:00      0.000     0.000    0.0000
   09/25/2018 18:35:00      0.000     0.000    0.0000
   09/25/2018 18:40:00      0.000     0.000    0.0000
   09/25/2018 18:45:00      0.000     0.000    0.0000
   09/25/2018 18:50:00      0.000     0.000    0.0000
   09/25/2018 18:55:00      0.000     0.000    0.0000
   09/25/2018 19:00:00      0.000     0.000    0.0000
   09/25/2018 19:05:00      0.000     0.000    0.0000
   09/25/2018 19:10:00      0.000     0.000    0.0000
   09/25/2018 19:15:00      0.000     0.000    0.0000
   09/25/2018 19:20:00      0.000     0.000    0.0000
   09/25/2018 19:25:00      0.000     0.000    0.0000
   09/25/2018 19:30:00      0.000     0.000    0.0000
   09/25/2018 19:35:00      0.000     0.000    0.0000
   09/25/2018 19:40:00      0.000     0.000    0.0000
   09/25/2018 19:45:00      0.000     0.000    0.0000
   09/25/2018 19:50:00      0.000     0.000    0.0000
   09/25/2018 19:55:00      0.000     0.000    0.0000
   09/25/2018 20:00:00      0.000     0.000    0.0000
   09/25/2018 20:05:00      0.000     0.000    0.0000
   09/25/2018 20:10:00      0.000     0.000    0.0000
   09/25/2018 20:15:00      0.000     0.000    0.0000
   09/25/2018 20:20:00      0.000     0.000    0.0000
   09/25/2018 20:25:00      0.000     0.000    0.0000
   09/25/2018 20:30:00      0.000     0.000    0.0000
   09/25/2018 20:35:00      0.000     0.000    0.0000
   09/25/2018 20:40:00      0.000     0.000    0.0000
   09/25/2018 20:45:00      0.000     0.000    0.0000
   09/25/2018 20:50:00      0.000     0.000    0.0000
   09/25/2018 20:55:00      0.000     0.000    0.0000
   09/25/2018 21:00:00      0.000     0.000    0.0000
   09/25/2018 21:05:00      0.000     0.000    0.0000
   09/25/2018 21:10:00      0.000     0.000    0.0000
   09/25/2018 21:15:00      0.000     0.000    0.0000
   09/25/2018 21:20:00      0.000     0.000    0.0000
   09/25/2018 21:25:00      0.000     0.000    0.0000
   09/25/2018 21:30:00      0.000     0.000    0.0000
   09/25/2018 21:35:00      0.000     0.000    0.0000
   09/25/2018 21:40:00      0.000     0.000    0.0000
   09/25/2018 21:45:00      0.000     0.000    0.0000
   09/25/2018 21:50:00      0.000     0.000    0.0000
   09/25/2018 21:55:00      0.000     0.000    0.0000
   09/25/2018 22:00:00      0.000     0.000    0.0000
   09/25/2018 22:05:00      0.000     0.000    0.0000
   09/25/2018 22:10:00      0.000     0.000    0.0000
   09/25/2018 22:15:00      0.000     0.000    0.0000
   09/25/2018 22:20:00      0.000     0.000    0.0000
   09/25/2018 22:25:00      0.000     0.000    0.0000
   09/25/2018 22:30:00      0.000     0.000    0.0000
   09/25/2018 22:35:00      0.000     0.000    0.0000
   09/25/2018 22:40:00      0.000     0.000    0.0000
   09/25/2018 22:45:00      0.000     0.000    0.0000
   09/25/2018 22:50:00      0.000     0.000    0.0000
   09/25/2018 22:55:00      0.000     0.000    0.0000
   09/25/2018 23:00:00      0.000     0.000    0.0000
   09/25/2018 23:05:00      0.000     0.000    0.0000
   09/25/2018 23:10:00      0.000     0.000    0.0000
   09/25/2018 23:15:00      0.000     0.000    0.0000
   09/25/2018 23:20:00      0.000     0.000    0.0000
   09/25/2018 23:25:00      0.000     0.000    0.0000
   09/25/2018 23:30:00      0.000     0.000    0.0000
   09/25/2018 23:35:00      0.000     0.000    0.0000
   09/25/2018 23:40:00      0.000     0.000    0.0000
   09/25/2018 23:45:00      0.000     0.000    0.0000
   09/25/2018 23:50:00      0.000     0.000    0.0000
   09/25/2018 23:55:00      0.000     0.000    0.0000
   09/26/2018 00:00:00      0.000     0.000    0.0000
   09/26/2018 00:05:00      0.000     0.000    0.0000
   09/26/2018 00:10:00      0.000     0.000    0.0000
   09/26/2018 00:15:00      0.000     0.000    0.0000
   09/26/2018 00:20:00      0.000     0.000    0.0000
   09/26/2018 00:25:00      0.000     0.000    0.0000
   09/26/2018 00:30:00      0.000     0.000    0.0000
   09/26/2018 00:35:00      0.000     0.000    0.0000
   09/26/2018 00:40:00      0.000     0.000    0.0000
   09/26/2018 00:45:00      0.000     0.000    0.0000
   09/26/2018 00:50:00      0.000     0.000    0.0000
   09/26/2018 00:55:00      0.000     0.000    0.0000
   09/26/2018 01:00:00      0.000     0.000    0.0000
   09/26/2018 01:05:00      0.000     0.000    0.0000
   09/26/2018 01:10:00      0.000     0.000    0.0000
   09/26/2018 01:15:00      0.000     0.000    0.0000
   09/26/2018 01:20:00      0.000     0.000    0.0000
   09/26/2018 01:25:00      0.000     0.000    0.0000
   09/26/2018 01:30:00      0.000     0.000    0.0000
   09/26/2018 01:35:00      0.000     0.000    0.0000
   09/26/2018 01:40:00      0.000     0.000    0.0000
   09/26/2018 01:45:00      0.000     0.000    0.0000
   09/26/2018 01:50:00      0.000     0.000    0.0000
   09/26/2018 01:55:00      0.000     0.000    0.0000
   09/26/2018 02:00:00      0.000     0.000    0.0000
   09/26/2018 02:05:00      0.000     0.000    0.0000
   09/26/2018 02:10:00      0.000     0.000    0.0000
   09/26/2018 02:15:00      0.000     0.000    0.0000
   09/26/2018 02:20:00      0.000     0.000    0.0000
   09/26/2018 02:25:00      0.000     0.000    0.0000
   09/26/2018 02:30:00      0.000     0.000    0.0000
   09/26/2018 02:35:00      0.000     0.000    0.0000
   09/26/2018 02:40:00      0.000     0.000    0.0000
   09/26/2018 02:45:00      0.000     0.000    0.0000
   09/26/2018 02:50:00      0.000     0.000    0.0000
   09/26/2018 02:55:00      0.000     0.000    0.0000
   09/26/2018 03:00:00      0.000     0.000    0.0000
   09/26/2018 03:05:00      0.000     0.000    0.0000
   09/26/2018 03:10:00      0.000     0.000    0.0000
   09/26/2018 03:15:00      0.000     0.000    0.0000
   09/26/2018 03:20:00      0.000     0.000    0.0000
   09/26/2018 03:25:00      0.000     0.000    0.0000
   09/26/2018 03:30:00      0.000     0.000    0.0000
   09/26/2018 03:35:00      0.000     0.000    0.0000
   09/26/2018 03:40:00      0.000     0.000    0.0000
   09/26/2018 03:45:00      0.000     0.000    0.0000
   09/26/2018 03:50:00      0.000     0.000    0.0000
   09/26/2018 03:55:00      0.000     0.000    0.0000
   09/26/2018 04:00:00      0.000     0.000    0.0000
   09/26/2018 04:05:00      0.000     0.000    0.0000
   09/26/2018 04:10:00      0.000     0.000    0.0000
   09/26/2018 04:15:00      0.000     0.000    0.0000
   09/26/2018 04:20:00      0.000     0.000    0.0000
   09/26/2018 04:25:00      0.000     0.000    0.0000
   09/26/2018 04:30:00      0.000     0.000    0.0000
   09/26/2018 04:35:00      0.000     0.000    0.0000
   09/26/2018 04:40:00      0.000     0.000    0.0000
   09/26/2018 04:45:00      0.000     0.000    0.0000
   09/26/2018 04:50:00      0.000     0.000    0.0000
   09/26/2018 04:55:00      0.000     0.000    0.0000
   09/26/2018 05:00:00      0.000     0.000    0.0000
   09/26/2018 05:05:00      0.000     0.000    0.0000
   09/26/2018 05:10:00      0.000     0.000    0.0000
   09/26/2018 05:15:00      0.000     0.000    0.0000
   09/26/2018 05:20:00      0.000     0.000    0.0000
   09/26/2018 05:25:00      0.000     0.000    0.0000
   09/26/2018 05:30:00      0.000     0.000    0.0000
   09/26/2018 05:35:00      0.000     0.000    0.0000
   09/26/2018 05:40:00      0.000     0.000    0.0000
   09/26/2018 05:45:00      0.000     0.000    0.0000
   09/26/2018 05:50:00      0.000     0.000    0.0000
   09/26/2018 05:55:00      0.000     0.000    0.0000
   09/26/2018 06:00:00      0.000     0.000    0.0000
   09/26/2018 06:05:00      0.000     0.000    0.0000
   09/26/2018 06:10:00      0.000     0.000    0.0000
   09/26/2018 06:15:00      0.000     0.000    0.0000
   09/26/2018 06:20:00      0.000     0.000    0.0000
   09/26/2018 06:25:00      0.000     0.000    0.0000
   09/26/2018 06:30:00      0.000     0.000    0.0000
   09/26/2018 06:35:00      0.000     0.000    0.0000
   09/26/2018 06:40:00      0.000     0.000    0.0000
   09/26/2018 06:45:00      0.000     0.000    0.0000
   09/26/2018 06:50:00      0.000     0.000    0.0000
   09/26/2018 06:55:00      0.000     0.000    0.0000
   09/26/2018 07:00:00      0.000     0.000    0.0000
   09/26/2018 07:05:00      0.000     0.000    0.0000
   09/26/2018 07:10:00      0.000     0.000    0.0000
   09/26/2018 07:15:00      0.000     0.000    0.0000
   09/26/2018 07:20:00      0.000     0.000    0.0000
   09/26/2018 07:25:00      0.000     0.000    0.0000
   09/26/2018 07:30:00      0.000     0.000    0.0000
   09/26/2018 07:35:00      0.000     0.000    0.0000
   09/26/2018 07:40:00      0.000     0.000    0.0000
   09/26/2018 07:45:00      0.000     0.000    0.0000
   09/26/2018 07:50:00      0.000     0.000    0.0000
   09/26/2018 07:55:00      0.000     0.000    0.0000
   09/26/2018 08:00:00      0.000     0.000    0.0000
   09/26/2018 08:05:00      0.000     0.000    0.0000
   09/26/2018 08:10:00      0.000     0.000    0.0000
   09/26/2018 08:15:00      0.000     0.000    0.0000
   09/26/2018 08:20:00      0.000     0.000    0.0000
   09/26/2018 08:25:00      0.000     0.000    0.0000
   09/26/2018 08:30:00      0.000     0.000    0.0000
   09/26/2018 08:35:00      0.000     0.000    0.0000
   09/26/2018 08:40:00      0.000     0.000    0.0000
   09/26/2018 08:45:00      0.000     0.000    0.0000
   09/26/2018 08:50:00      0.000     0.000    0.0000
   09/26/2018 08:55:00      0.000     0.000    0.0000
   09/26/2018 09:00:00      0.000     0.000    0.0000
   09/26/2018 09:05:00      0.000     0.000    0.0000
   09/26/2018 09:10:00      0.000     0.000    0.0000
   09/26/2018 09:15:00      0.000     0.000    0.0000
   09/26/2018 09:20:00      0.000     0.000    0.0000
   09/26/2018 09:25:00      0.000     0.000    0.0000
   09/26/2018 09:30:00      0.000     0.000    0.0000
   09/26/2018 09:35:00      0.000     0.000    0.0000
   09/26/2018 09:40:00      0.000     0.000    0.0000
   09/26/2018 09:45:00      0.000     0.000    0.0000
   09/26/2018 09:50:00      0.000     0.000    0.0000
   09/26/2018 09:55:00      0.000     0.000    0.0000
   09/26/2018 10:00:00      0.000     0.000    0.0000
   09/26/2018 10:05:00      0.000     0.000    0.0000
   09/26/2018 10:10:00      0.000     0.000    0.0000
   09/26/2018 10:15:00      0.000     0.000    0.0000
   09/26/2018 10:20:00      0.000     0.000    0.0000
   09/26/2018 10:25:00      0.000     0.000    0.0000
   09/26/2018 10:30:00      0.000     0.000    0.0000
   09/26/2018 10:35:00      0.000     0.000    0.0000
   09/26/2018 10:40:00      0.000     0.000    0.0000
   09/26/2018 10:45:00      0.000     0.000    0.0000
   09/26/2018 10:50:00      0.000     0.000    0.0000
   09/26/2018 10:55:00      0.000     0.000    0.0000
   09/26/2018 11:00:00      0.000     0.000    0.0000
   09/26/2018 11:05:00      0.000     0.000    0.0000
   09/26/2018 11:10:00      0.000     0.000    0.0000
   09/26/2018 11:15:00      0.000     0.000    0.0000
   09/26/2018 11:20:00      0.000     0.000    0.0000
   09/26/2018 11:25:00      0.000     0.000    0.0000
   09/26/2018 11:30:00      0.000     0.000    0.0000
   09/26/2018 11:35:00      0.000     0.000    0.0000
   09/26/2018 11:40:00      0.000     0.000    0.0000
   09/26/2018 11:45:00      0.000     0.000    0.0000
   09/26/2018 11:50:00      0.000     0.000    0.0000
   09/26/2018 11:55:00      0.000     0.000    0.0000
   09/26/2018 12:00:00      0.000     0.000    0.0000
   09/26/2018 12:05:00      0.000     0.000    0.0000
   09/26/2018 12:10:00      0.000     0.000    0.0000
   09/26/2018 12:15:00      0.000     0.000    0.0000
   09/26/2018 12:20:00      0.000     0.000    0.0000
   09/26/2018 12:25:00      0.000     0.000    0.0000
   09/26/2018 12:30:00      0.000     0.000    0.0000
   09/26/2018 12:35:00      0.000     0.000    0.0000
   09/26/2018 12:40:00      0.000     0.000    0.0000
   09/26/2018 12:45:00      0.000     0.000    0.0000
   09/26/2018 12:50:00      0.000     0.000    0.0000
   09/26/2018 12:55:00      0.000     0.000    0.0000
   09/26/2018 13:00:00      0.000     0.000    0.0000
   09/26/2018 13:05:00      0.000     0.000    0.0000
   09/26/2018 13:10:00      0.000     0.000    0.0000
   09/26/2018 13:15:00      0.000     0.000    0.0000
   09/26/2018 13:20:00      0.000     0.000    0.0000
   09/26/2018 13:25:00      0.000     0.000    0.0000
   09/26/2018 13:30:00      0.000     0.000    0.0000
   09/26/2018 13:35:00      0.000     0.000    0.0000
   09/26/2018 13:40:00      0.000     0.000    0.0000
   09/26/2018 13:45:00      0.000     0.000    0.0000
   09/26/2018 13:50:00      0.000     0.000    0.0000
   09/26/2018 13:55:00      0.000     0.000    0.0000
   09/26/2018 14:00:00      0.000     0.000    0.0000
   09/26/2018 14:05:00      0.000     0.000    0.0000
   09/26/2018 14:10:00      0.000     0.000    0.0000
   09/26/2018 14:15:00      0.000     0.000    0.0000
   09/26/2018 14:20:00      0.000     0.000    0.0000
   09/26/2018 14:25:00      0.000     0.000    0.0000
   09/26/2018 14:30:00      0.000     0.000    0.0000
   09/26/2018 14:35:00      0.000     0.000    0.0000
   09/26/2018 14:40:00      0.000     0.000    0.0000
   09/26/2018 14:45:00      0.000     0.000    0.0000
   09/26/2018 14:50:00      0.000     0.000    0.0000
   09/26/2018 14:55:00      0.000     0.000    0.0000
   09/26/2018 15:00:00      0.000     0.000    0.0000
   09/26/2018 15:05:00      0.000     0.000    0.0000
   09/26/2018 15:10:00      0.000     0.000    0.0000
   09/26/2018 15:15:00      0.000     0.000    0.0000
   09/26/2018 15:20:00      0.000     0.000    0.0000
   09/26/2018 15:25:00      0.000     0.000    0.0000
   09/26/2018 15:30:00      0.000     0.000    0.0000
   09/26/2018 15:35:00      0.000     0.000    0.0000
   09/26/2018 15:40:00      0.000     0.000    0.0000
   09/26/2018 15:45:00      0.000     0.000    0.0000
   09/26/2018 15:50:00      0.000     0.000    0.0000
   09/26/2018 15:55:00      0.000     0.000    0.0000
   09/26/2018 16:00:00      0.000     0.000    0.0000
   09/26/2018 16:05:00      0.000     0.000    0.0000
   09/26/2018 16:10:00      0.000     0.000    0.0000
   09/26/2018 16:15:00      0.000     0.000    0.0000
   09/26/2018 16:20:00      0.000     0.000    0.0000
   09/26/2018 16:25:00      0.000     0.000    0.0000
   09/26/2018 16:30:00      0.000     0.000    0.0000
   09/26/2018 16:35:00      0.000     0.000    0.0000
   09/26/2018 16:40:00      0.000     0.000    0.0000
   09/26/2018 16:45:00      0.000     0.000    0.0000
   09/26/2018 16:50:00      0.000     0.000    0.0000
   09/26/2018 16:55:00      0.000     0.000    0.0000
   09/26/2018 17:00:00      0.000     0.000    0.0000
   09/26/2018 17:05:00      0.000     0.000    0.0000
   09/26/2018 17:10:00      0.000     0.000    0.0000
   09/26/2018 17:15:00      0.000     0.000    0.0000
   09/26/2018 17:20:00      0.000     0.000    0.0000
   09/26/2018 17:25:00      0.000     0.000    0.0000
   09/26/2018 17:30:00      0.000     0.000    0.0000
   09/26/2018 17:35:00      0.000     0.000    0.0000
   09/26/2018 17:40:00      0.000     0.000    0.0000
   09/26/2018 17:45:00      0.000     0.000    0.0000
   09/26/2018 17:50:00      0.000     0.000    0.0000
   09/26/2018 17:55:00      0.000     0.000    0.0000
   09/26/2018 18:00:00      0.000     0.000    0.0000
   09/26/2018 18:05:00      0.000     0.000    0.0000
   09/26/2018 18:10:00      0.000     0.000    0.0000
   09/26/2018 18:15:00      0.000     0.000    0.0000
   09/26/2018 18:20:00      0.000     0.000    0.0000
   09/26/2018 18:25:00      0.000     0.000    0.0000
   09/26/2018 18:30:00      0.000     0.000    0.0000
   09/26/2018 18:35:00      0.000     0.000    0.0000
   09/26/2018 18:40:00      0.000     0.000    0.0000
   09/26/2018 18:45:00      0.000     0.000    0.0000
   09/26/2018 18:50:00      0.000     0.000    0.0000
   09/26/2018 18:55:00      0.000     0.000    0.0000
   09/26/2018 19:00:00      0.000     0.000    0.0000
   09/26/2018 19:05:00      0.000     0.000    0.0000
   09/26/2018 19:10:00      0.000     0.000    0.0000
   09/26/2018 19:15:00      0.000     0.000    0.0000
   09/26/2018 19:20:00      0.000     0.000    0.0000
   09/26/2018 19:25:00      0.000     0.000    0.0000
   09/26/2018 19:30:00      0.000     0.000    0.0000
   09/26/2018 19:35:00      0.000     0.000    0.0000
   09/26/2018 19:40:00      0.000     0.000    0.0000
   09/26/2018 19:45:00      0.000     0.000    0.0000
   09/26/2018 19:50:00      0.000     0.000    0.0000
   09/26/2018 19:55:00      0.000     0.000    0.0000
   09/26/2018 20:00:00      0.000     0.000    0.0000
   09/26/2018 20:05:00      0.000     0.000    0.0000
   09/26/2018 20:10:00      0.000     0.000    0.0000
   09/26/2018 20:15:00      0.000     0.000    0.0000
   09/26/2018 20:20:00      0.000     0.000    0.0000
   09/26/2018 20:25:00      0.000     0.000    0.0000
   09/26/2018 20:30:00      0.000     0.000    0.0000
   09/26/2018 20:35:00      0.000     0.000    0.0000
   09/26/2018 20:40:00      0.000     0.000    0.0000
   09/26/2018 20:45:00      0.000     0.000    0.0000
   09/26/2018 20:50:00      0.000     0.000    0.0000
   09/26/2018 20:55:00      0.000     0.000    0.0000
   09/26/2018 21:00:00      0.000     0.000    0.0000
   09/26/2018 21:05:00      0.000     0.000    0.0000
   09/26/2018 21:10:00      0.000     0.000    0.0000
   09/26/2018 21:15:00      0.000     0.000    0.0000
   09/26/2018 21:20:00      0.000     0.000    0.0000
   09/26/2018 21:25:00      0.000     0.000    0.0000
   09/26/2018 21:30:00      0.000     0.000    0.0000
   09/26/2018 21:35:00      0.000     0.000    0.0000
   09/26/2018 21:40:00      0.000     0.000    0.0000
   09/26/2018 21:45:00      0.000     0.000    0.0000
   09/26/2018 21:50:00      0.000     0.000    0.0000
   09/26/2018 21:55:00      0.000     0.000    0.0000
   09/26/2018 22:00:00      0.000     0.000    0.0000
   09/26/2018 22:05:00      0.000     0.000    0.0000
   09/26/2018 22:10:00      0.000     0.000    0.0000
   09/26/2018 22:15:00      0.000     0.000    0.0000
   09/26/2018 22:20:00      0.000     0.000    0.0000
   09/26/2018 22:25:00      0.000     0.000    0.0000
   09/26/2018 22:30:00      0.000     0.000    0.0000
   09/26/2018 22:35:00      0.000     0.000    0.0000
   09/26/2018 22:40:00      0.000     0.000    0.0000
   09/26/2018 22:45:00      0.000     0.000    0.0000
   09/26/2018 22:50:00      0.000     0.000    0.0000
   09/26/2018 22:55:00      0.000     0.000    0.0000
   09/26/2018 23:00:00      0.000     0.000    0.0000
   09/26/2018 23:05:00      0.000     0.000    0.0000
   09/26/2018 23:10:00      0.000     0.000    0.0000
   09/26/2018 23:15:00      0.000     0.000    0.0000
   09/26/2018 23:20:00      0.000     0.000    0.0000
   09/26/2018 23:25:00      0.000     0.000    0.0000
   09/26/2018 23:30:00      0.000     0.000    0.0000
   09/26/2018 23:35:00      0.000     0.000    0.0000
   09/26/2018 23:40:00      0.000     0.000    0.0000
   09/26/2018 23:45:00      0.000     0.000    0.0000
   09/26/2018 23:50:00      0.000     0.000    0.0000
   09/26/2018 23:55:00      0.000     0.000    0.0000
   09/27/2018 00:00:00      0.000     0.000    0.0000
   09/27/2018 00:05:00      0.000     0.000    0.0000
   09/27/2018 00:10:00      0.000     0.000    0.0000
   09/27/2018 00:15:00      0.000     0.000    0.0000
   09/27/2018 00:20:00      0.000     0.000    0.0000
   09/27/2018 00:25:00      0.000     0.000    0.0000
   09/27/2018 00:30:00      0.000     0.000    0.0000
   09/27/2018 00:35:00      0.000     0.000    0.0000
   09/27/2018 00:40:00      0.000     0.000    0.0000
   09/27/2018 00:45:00      0.000     0.000    0.0000
   09/27/2018 00:50:00      0.000     0.000    0.0000
   09/27/2018 00:55:00      0.000     0.000    0.0000
   09/27/2018 01:00:00      0.000     0.000    0.0000
   09/27/2018 01:05:00      0.000     0.000    0.0000
   09/27/2018 01:10:00      0.000     0.000    0.0000
   09/27/2018 01:15:00      0.000     0.000    0.0000
   09/27/2018 01:20:00      0.000     0.000    0.0000
   09/27/2018 01:25:00      0.000     0.000    0.0000
   09/27/2018 01:30:00      0.000     0.000    0.0000
   09/27/2018 01:35:00      0.000     0.000    0.0000
   09/27/2018 01:40:00      0.000     0.000    0.0000
   09/27/2018 01:45:00      0.000     0.000    0.0000
   09/27/2018 01:50:00      0.000     0.000    0.0000
   09/27/2018 01:55:00      0.000     0.000    0.0000
   09/27/2018 02:00:00      0.000     0.000    0.0000
   09/27/2018 02:05:00      0.000     0.000    0.0000
   09/27/2018 02:10:00      0.000     0.000    0.0000
   09/27/2018 02:15:00      0.000     0.000    0.0000
   09/27/2018 02:20:00      0.000     0.000    0.0000
   09/27/2018 02:25:00      0.000     0.000    0.0000
   09/27/2018 02:30:00      0.000     0.000    0.0000
   09/27/2018 02:35:00      0.000     0.000    0.0000
   09/27/2018 02:40:00      0.000     0.000    0.0000
   09/27/2018 02:45:00      0.000     0.000    0.0000
   09/27/2018 02:50:00      0.000     0.000    0.0000
   09/27/2018 02:55:00      0.000     0.000    0.0000
   09/27/2018 03:00:00      0.000     0.000    0.0000
   09/27/2018 03:05:00      0.000     0.000    0.0000
   09/27/2018 03:10:00      0.000     0.000    0.0000
   09/27/2018 03:15:00      0.000     0.000    0.0000
   09/27/2018 03:20:00      0.000     0.000    0.0000
   09/27/2018 03:25:00      0.000     0.000    0.0000
   09/27/2018 03:30:00      0.000     0.000    0.0000
   09/27/2018 03:35:00      0.000     0.000    0.0000
   09/27/2018 03:40:00      0.000     0.000    0.0000
   09/27/2018 03:45:00      0.000     0.000    0.0000
   09/27/2018 03:50:00      0.000     0.000    0.0000
   09/27/2018 03:55:00      0.000     0.000    0.0000
   09/27/2018 04:00:00      0.000     0.000    0.0000
   09/27/2018 04:05:00      0.000     0.000    0.0000
   09/27/2018 04:10:00      0.000     0.000    0.0000
   09/27/2018 04:15:00      0.000     0.000    0.0000
   09/27/2018 04:20:00      0.000     0.000    0.0000
   09/27/2018 04:25:00      0.000     0.000    0.0000
   09/27/2018 04:30:00      0.000     0.000    0.0000
   09/27/2018 04:35:00      0.000     0.000    0.0000
   09/27/2018 04:40:00      0.000     0.000    0.0000
   09/27/2018 04:45:00      0.000     0.000    0.0000
   09/27/2018 04:50:00      0.000     0.000    0.0000
   09/27/2018 04:55:00      0.000     0.000    0.0000
   09/27/2018 05:00:00      0.000     0.000    0.0000
   09/27/2018 05:05:00      0.000     0.000    0.0000
   09/27/2018 05:10:00      0.000     0.000    0.0000
   09/27/2018 05:15:00      0.000     0.000    0.0000
   09/27/2018 05:20:00      0.000     0.000    0.0000
   09/27/2018 05:25:00      0.000     0.000    0.0000
   09/27/2018 05:30:00      0.000     0.000    0.0000
   09/27/2018 05:35:00      0.000     0.000    0.0000
   09/27/2018 05:40:00      0.000     0.000    0.0000
   09/27/2018 05:45:00      0.000     0.000    0.0000
   09/27/2018 05:50:00      0.000     0.000    0.0000
   09/27/2018 05:55:00      0.000     0.000    0.0000
   09/27/2018 06:00:00      0.000     0.000    0.0000
   09/27/2018 06:05:00      0.000     0.000    0.0000
   09/27/2018 06:10:00      0.000     0.000    0.0000
   09/27/2018 06:15:00      0.000     0.000    0.0000
   09/27/2018 06:20:00      0.000     0.000    0.0000
   09/27/2018 06:25:00      0.000     0.000    0.0000
   09/27/2018 06:30:00      0.000     0.000    0.0000
   09/27/2018 06:35:00      0.000     0.000    0.0000
   09/27/2018 06:40:00      0.000     0.000    0.0000
   09/27/2018 06:45:00      0.000     0.000    0.0000
   09/27/2018 06:50:00      0.000     0.000    0.0000
   09/27/2018 06:55:00      0.000     0.000    0.0000
   09/27/2018 07:00:00      0.000     0.000    0.0000
   09/27/2018 07:05:00      0.000     0.000    0.0000
   09/27/2018 07:10:00      0.000     0.000    0.0000
   09/27/2018 07:15:00      0.000     0.000    0.0000
   09/27/2018 07:20:00      0.000     0.000    0.0000
   09/27/2018 07:25:00      0.000     0.000    0.0000
   09/27/2018 07:30:00      0.000     0.000    0.0000
   09/27/2018 07:35:00      0.000     0.000    0.0000
   09/27/2018 07:40:00      0.000     0.000    0.0000
   09/27/2018 07:45:00      0.000     0.000    0.0000
   09/27/2018 07:50:00      0.000     0.000    0.0000
   09/27/2018 07:55:00      0.000     0.000    0.0000
   09/27/2018 08:00:00      0.000     0.000    0.0000
   09/27/2018 08:05:00      0.000     0.000    0.0000
   09/27/2018 08:10:00      0.000     0.000    0.0000
   09/27/2018 08:15:00      0.000     0.000    0.0000
   09/27/2018 08:20:00      0.000     0.000    0.0000
   09/27/2018 08:25:00      0.000     0.000    0.0000
   09/27/2018 08:30:00      0.000     0.000    0.0000
   09/27/2018 08:35:00      0.000     0.000    0.0000
   09/27/2018 08:40:00      0.000     0.000    0.0000
   09/27/2018 08:45:00      0.000     0.000    0.0000
   09/27/2018 08:50:00      0.000     0.000    0.0000
   09/27/2018 08:55:00      0.000     0.000    0.0000
   09/27/2018 09:00:00      0.000     0.000    0.0000
   09/27/2018 09:05:00      0.000     0.000    0.0000
   09/27/2018 09:10:00      0.000     0.000    0.0000
   09/27/2018 09:15:00      0.000     0.000    0.0000
   09/27/2018 09:20:00      0.000     0.000    0.0000
   09/27/2018 09:25:00      0.000     0.000    0.0000
   09/27/2018 09:30:00      0.000     0.000    0.0000
   09/27/2018 09:35:00      0.000     0.000    0.0000
   09/27/2018 09:40:00      0.000     0.000    0.0000
   09/27/2018 09:45:00      0.000     0.000    0.0000
   09/27/2018 09:50:00      0.000     0.000    0.0000
   09/27/2018 09:55:00      0.000     0.000    0.0000
   09/27/2018 10:00:00      0.000     0.000    0.0000
   09/27/2018 10:05:00      0.000     0.000    0.0000
   09/27/2018 10:10:00      0.000     0.000    0.0000
   09/27/2018 10:15:00      0.000     0.000    0.0000
   09/27/2018 10:20:00      0.000     0.000    0.0000
   09/27/2018 10:25:00      0.000     0.000    0.0000
   09/27/2018 10:30:00      0.000     0.000    0.0000
   09/27/2018 10:35:00      0.000     0.000    0.0000
   09/27/2018 10:40:00      0.000     0.000    0.0000
   09/27/2018 10:45:00      0.000     0.000    0.0000
   09/27/2018 10:50:00      0.000     0.000    0.0000
   09/27/2018 10:55:00      0.000     0.000    0.0000
   09/27/2018 11:00:00      0.000     0.000    0.0000
   09/27/2018 11:05:00      0.000     0.000    0.0000
   09/27/2018 11:10:00      0.000     0.000    0.0000
   09/27/2018 11:15:00      0.000     0.000    0.0000
   09/27/2018 11:20:00      0.000     0.000    0.0000
   09/27/2018 11:25:00      0.000     0.000    0.0000
   09/27/2018 11:30:00      0.000     0.000    0.0000
   09/27/2018 11:35:00      0.000     0.000    0.0000
   09/27/2018 11:40:00      0.000     0.000    0.0000
   09/27/2018 11:45:00      0.000     0.000    0.0000
   09/27/2018 11:50:00      0.000     0.000    0.0000
   09/27/2018 11:55:00      0.000     0.000    0.0000
   09/27/2018 12:00:00      0.000     0.000    0.0000
   09/27/2018 12:05:00      0.000     0.000    0.0000
   09/27/2018 12:10:00      0.000     0.000    0.0000
   09/27/2018 12:15:00      0.000     0.000    0.0000
   09/27/2018 12:20:00      0.000     0.000    0.0000
   09/27/2018 12:25:00      0.000     0.000    0.0000
   09/27/2018 12:30:00      0.000     0.000    0.0000
   09/27/2018 12:35:00      0.000     0.000    0.0000
   09/27/2018 12:40:00      0.000     0.000    0.0000
   09/27/2018 12:45:00      0.000     0.000    0.0000
   09/27/2018 12:50:00      0.000     0.000    0.0000
   09/27/2018 12:55:00      0.000     0.000    0.0000
   09/27/2018 13:00:00      0.000     0.000    0.0000
[...]
   10/09/2018 22:15:00      0.000     0.000     0.000     0.000
   10/09/2018 22:20:00      0.000     0.000     0.000     0.000
   10/09/2018 22:25:00      0.000     0.000     0.000     0.000
   10/09/2018 22:30:00      0.000     0.000     0.000     0.000
   10/09/2018 22:35:00      0.000     0.000     0.000     0.000
   10/09/2018 22:40:00      0.000     0.000     0.000     0.000
   10/09/2018 22:45:00      0.000     0.000     0.000     0.000
   10/09/2018 22:50:00      0.000     0.000     0.000     0.000
   10/09/2018 22:55:00      0.000     0.000     0.000     0.000
   10/09/2018 23:00:00      0.000     0.000     0.000     0.000
   10/09/2018 23:05:00      0.000     0.000     0.000     0.000
   10/09/2018 23:10:00      0.000     0.000     0.000     0.000
   10/09/2018 23:15:00      0.000     0.000     0.000     0.000
   10/09/2018 23:20:00      0.000     0.000     0.000     0.000
   10/09/2018 23:25:00      0.000     0.000     0.000     0.000
   10/09/2018 23:30:00      0.000     0.000     0.000     0.000
   10/09/2018 23:35:00      0.000     0.000     0.000     0.000
   10/09/2018 23:40:00      0.000     0.000     0.000     0.000
   10/09/2018 23:45:00      0.000     0.000     0.000     0.000
   10/09/2018 23:50:00      0.000     0.000     0.000     0.000
   10/09/2018 23:55:00      0.000     0.000     0.000     0.000
   10/10/2018 00:00:00      0.000     0.000     0.000     0.000
   10/10/2018 00:05:00      0.000     0.000     0.000     0.000
   10/10/2018 00:10:00      0.000     0.000     0.000     0.000
   10/10/2018 00:15:00      0.000     0.000     0.000     0.000
   10/10/2018 00:20:00      0.000     0.000     0.000     0.000
   10/10/2018 00:25:00      0.000     0.000     0.000     0.000
   10/10/2018 00:30:00      0.000     0.000     0.000     0.000
   10/10/2018 00:35:00      0.000     0.000     0.000     0.000
   10/10/2018 00:40:00      0.000     0.000     0.000     0.000
   10/10/2018 00:45:00      0.000     0.000     0.000     0.000
   10/10/2018 00:50:00      0.000     0.000     0.000     0.000
   10/10/2018 00:55:00      0.000     0.000     0.000     0.000
   10/10/2018 01:00:00      0.000     0.000     0.000     0.000
   10/10/2018 01:05:00      0.000     0.000     0.000     0.000
   10/10/2018 01:10:00      0.000     0.000     0.000     0.000
   10/10/2018 01:15:00      0.000     0.000     0.000     0.000
   10/10/2018 01:20:00      0.000     0.000     0.000     0.000
   10/10/2018 01:25:00      0.000     0.000     0.000     0.000
   10/10/2018 01:30:00      0.000     0.000     0.000     0.000
   10/10/2018 01:35:00      0.000     0.000     0.000     0.000
   10/10/2018 01:40:00      0.000     0.000     0.000     0.000
   10/10/2018 01:45:00      0.000     0.000     0.000     0.000
   10/10/2018 01:50:00      0.000     0.000     0.000     0.000
   10/10/2018 01:55:00      0.000     0.000     0.000     0.000
   10/10/2018 02:00:00      0.000     0.000     0.000     0.000
   10/10/2018 02:05:00      0.000     0.000     0.000     0.000
   10/10/2018 02:10:00      0.000     0.000     0.000     0.000
   10/10/2018 02:15:00      0.000     0.000     0.000     0.000
   10/10/2018 02:20:00      0.000     0.000     0.000     0.000
   10/10/2018 02:25:00      0.000     0.000     0.000     0.000
   10/10/2018 02:30:00      0.000     0.000     0.000     0.000
   10/10/2018 02:35:00      0.000     0.000     0.000     0.000
   10/10/2018 02:40:00      0.000     0.000     0.000     0.000
   10/10/2018 02:45:00      0.000     0.000     0.000     0.000
   10/10/2018 02:50:00      0.000     0.000     0.000     0.000
   10/10/2018 02:55:00      0.000     0.000     0.000     0.000
   10/10/2018 03:00:00      0.000     0.000     0.000     0.000
   10/10/2018 03:05:00      0.000     0.000     0.000     0.000
   10/10/2018 03:10:00      0.000     0.000     0.000     0.000
   10/10/2018 03:15:00      0.000     0.000     0.000     0.000
   10/10/2018 03:20:00      0.000     0.000     0.000     0.000
   10/10/2018 03:25:00      0.000     0.000     0.000     0.000
   10/10/2018 03:30:00      0.000     0.000     0.000     0.000
   10/10/2018 03:35:00      0.000     0.000     0.000     0.000
   10/10/2018 03:40:00      0.000     0.000     0.000     0.000
   10/10/2018 03:45:00      0.000     0.000     0.000     0.000
   10/10/2018 03:50:00      0.000     0.000     0.000     0.000
   10/10/2018 03:55:00      0.000     0.000     0.000     0.000
   10/10/2018 04:00:00      0.000     0.000     0.000     0.000
   10/10/2018 04:05:00      0.000     0.000     0.000     0.000
   10/10/2018 04:10:00      0.000     0.000     0.000     0.000
   10/10/2018 04:15:00      0.000     0.000     0.000     0.000
   10/10/2018 04:20:00      0.000     0.000     0.000     0.000
   10/10/2018 04:25:00      0.000     0.000     0.000     0.000
   10/10/2018 04:30:00      0.000     0.000     0.000     0.000
   10/10/2018 04:35:00      0.000     0.000     0.000     0.000
   10/10/2018 04:40:00      0.000     0.000     0.000     0.000
   10/10/2018 04:45:00      0.000     0.000     0.000     0.000
   10/10/2018 04:50:00      0.000     0.000     0.000     0.000
   10/10/2018 04:55:00      0.000     0.000     0.000     0.000
   10/10/2018 05:00:00      0.000     0.000     0.000     0.000
   10/10/2018 05:05:00      0.000     0.000     0.000     0.000
   10/10/2018 05:10:00      0.000     0.000     0.000     0.000
   10/10/2018 05:15:00      0.000     0.000     0.000     0.000
   10/10/2018 05:20:00      0.000     0.000     0.000     0.000
   10/10/2018 05:25:00      0.000     0.000     0.000     0.000
   10/10/2018 05:30:00      0.000     0.000     0.000     0.000
   10/10/2018 05:35:00      0.000     0.000     0.000     0.000
   10/10/2018 05:40:00      0.000     0.000     0.000     0.000
   10/10/2018 05:45:00      0.000     0.000     0.000     0.000
   10/10/2018 05:50:00      0.000     0.000     0.000     0.000
   10/10/2018 05:55:00      0.000     0.000     0.000     0.000
   10/10/2018 06:00:00      0.000     0.000     0.000     0.000
   10/10/2018 06:05:00      0.000     0.000     0.000     0.000
   10/10/2018 06:10:00      0.000     0.000     0.000     0.000
   10/10/2018 06:15:00      0.000     0.000     0.000     0.000
   10/10/2018 06:20:00      0.000     0.000     0.000     0.000
   10/10/2018 06:25:00      0.000     0.000     0.000     0.000
   10/10/2018 06:30:00      0.000     0.000     0.000     0.000
   10/10/2018 06:35:00      0.000     0.000     0.000     0.000
   10/10/2018 06:40:00      0.000     0.000     0.000     0.000
   10/10/2018 06:45:00      0.000     0.000     0.000     0.000
   10/10/2018 06:50:00      0.000     0.000     0.000     0.000
   10/10/2018 06:55:00      0.000     0.000     0.000     0.000
   10/10/2018 07:00:00      0.000     0.000     0.000     0.000
   10/10/2018 07:05:00      0.000     0.000     0.000     0.000
   10/10/2018 07:10:00      0.000     0.000     0.000     0.000
   10/10/2018 07:15:00      0.000     0.000     0.000     0.000
   10/10/2018 07:20:00      0.000     0.000     0.000     0.000
   10/10/2018 07:25:00      0.000     0.000     0.000     0.000
   10/10/2018 07:30:00      0.000     0.000     0.000     0.000
   10/10/2018 07:35:00      0.000     0.000     0.000     0.000
   10/10/2018 07:40:00      0.000     0.000     0.000     0.000
   10/10/2018 07:45:00      0.000     0.000     0.000     0.000
   10/10/2018 07:50:00      0.000     0.000     0.000     0.000
   10/10/2018 07:55:00      0.000     0.000     0.000     0.000
   10/10/2018 08:00:00      0.000     0.000     0.000     0.000
   10/10/2018 08:05:00      0.000     0.000     0.000     0.000
   10/10/2018 08:10:00      0.000     0.000     0.000     0.000
   10/10/2018 08:15:00      0.000     0.000     0.000     0.000
   10/10/2018 08:20:00      0.000     0.000     0.000     0.000
   10/10/2018 08:25:00      0.000     0.000     0.000     0.000
   10/10/2018 08:30:00      0.000     0.000     0.000     0.000
   10/10/2018 08:35:00      0.000     0.000     0.000     0.000
   10/10/2018 08:40:00      0.000     0.000     0.000     0.000
   10/10/2018 08:45:00      0.000     0.000     0.000     0.000
   10/10/2018 08:50:00      0.000     0.000     0.000     0.000
   10/10/2018 08:55:00      0.000     0.000     0.000     0.000
   10/10/2018 09:00:00      0.000     0.000     0.000     0.000
   10/10/2018 09:05:00      0.000     0.000     0.000     0.000
   10/10/2018 09:10:00      0.000     0.000     0.000     0.000
   10/10/2018 09:15:00      0.000     0.000     0.000     0.000
   10/10/2018 09:20:00      0.000     0.000     0.000     0.000
   10/10/2018 09:25:00      0.000     0.000     0.000     0.000
   10/10/2018 09:30:00      0.000     0.000     0.000     0.000
   10/10/2018 09:35:00      0.000     0.000     0.000     0.000
   10/10/2018 09:40:00      0.000     0.000     0.000     0.000
   10/10/2018 09:45:00      0.000     0.000     0.000     0.000
   10/10/2018 09:50:00      0.000     0.000     0.000     0.000
   10/10/2018 09:55:00      0.000     0.000     0.000     0.000
   10/10/2018 10:00:00      0.000     0.000     0.000     0.000
   10/10/2018 10:05:00      0.000     0.000     0.000     0.000
   10/10/2018 10:10:00      0.000     0.000     0.000     0.000
   10/10/2018 10:15:00      0.000     0.000     0.000     0.000
   10/10/2018 10:20:00      0.000     0.000     0.000     0.000
   10/10/2018 10:25:00      0.000     0.000     0.000     0.000
   10/10/2018 10:30:00      0.000     0.000     0.000     0.000
   10/10/2018 10:35:00      0.000     0.000     0.000     0.000
   10/10/2018 10:40:00      0.000     0.000     0.000     0.000
   10/10/2018 10:45:00      0.000     0.000     0.000     0.000
   10/10/2018 10:50:00      0.000     0.000     0.000     0.000
   10/10/2018 10:55:00      0.000     0.000     0.000     0.000
   10/10/2018 11:00:00      0.000     0.000     0.000     0.000
   10/10/2018 11:05:00      0.000     0.000     0.000     0.000
   10/10/2018 11:10:00      0.000     0.000     0.000     0.000
   10/10/2018 11:15:00      0.000     0.000     0.000     0.000
   10/10/2018 11:20:00      0.000     0.000     0.000     0.000
   10/10/2018 11:25:00      0.000     0.000     0.000     0.000
   10/10/2018 11:30:00      0.000     0.000     0.000     0.000
   10/10/2018 11:35:00      0.000     0.000     0.000     0.000
   10/10/2018 11:40:00      0.000     0.000     0.000     0.000
   10/10/2018 11:45:00      0.000     0.000     0.000     0.000
   10/10/2018 11:50:00      0.000     0.000     0.000     0.000
   10/10/2018 11:55:00      0.000     0.000     0.000     0.000
   10/10/2018 12:00:00      0.000     0.000     0.000     0.000
   10/10/2018 12:05:00      0.000     0.000     0.000     0.000
   10/10/2018 12:10:00      0.000     0.000     0.000     0.000
   10/10/2018 12:15:00      0.000     0.000     0.000     0.000
   10/10/2018 12:20:00      0.000     0.000     0.000     0.000
   10/10/2018 12:25:00      0.000     0.000     0.000     0.000
   10/10/2018 12:30:00      0.000     0.000     0.000     0.000
   10/10/2018 12:35:00      0.000     0.000     0.000     0.000
   10/10/2018 12:40:00      0.000     0.000     0.000     0.000
   10/10/2018 12:45:00      0.000     0.000     0.000     0.000
   10/10/2018 12:50:00      0.000     0.000     0.000     0.000
   10/10/2018 12:55:00      0.000     0.000     0.000     0.000
   10/10/2018 13:00:00      0.000     0.000     0.000     0.000
   10/10/2018 13:05:00      0.000     0.000     0.000     0.000
   10/10/2018 13:10:00      0.000     0.000     0.000     0.000
   10/10/2018 13:15:00      0.000     0.000     0.000     0.000
   10/10/2018 13:20:00      0.000     0.000     0.000     0.000
   10/10/2018 13:25:00      0.000     0.000     0.000     0.000
   10/10/2018 13:30:00      0.000     0.000     0.000     0.000
   10/10/2018 13:35:00      0.000     0.000     0.000     0.000
   10/10/2018 13:40:00      0.000     0.000     0.000     0.000
   10/10/2018 13:45:00      0.000     0.000     0.000     0.000
   10/10/2018 13:50:00      0.000     0.000     0.000     0.000
   10/10/2018 13:55:00      0.000     0.000     0.000     0.000
   10/10/2018 14:00:00      0.000     0.000     0.000     0.000
   10/10/2018 14:05:00      0.000     0.000     0.000     0.000
   10/10/2018 14:10:00      0.000     0.000     0.000     0.000
   10/10/2018 14:15:00      0.000     0.000     0.000     0.000
   10/10/2018 14:20:00      0.000     0.000     0.000     0.000
   10/10/2018 14:25:00      0.000     0.000     0.000     0.000
   10/10/2018 14:30:00      0.000     0.000     0.000     0.000
   10/10/2018 14:35:00      0.000     0.000     0.000     0.000
   10/10/2018 14:40:00      0.000     0.000     0.000     0.000
   10/10/2018 14:45:00      0.000     0.000     0.000     0.000
   10/10/2018 14:50:00      0.000     0.000     0.000     0.000
   10/10/2018 14:55:00      0.000     0.000     0.000     0.000
   10/10/2018 15:00:00      0.000     0.000     0.000     0.000
   10/10/2018 15:05:00      0.000     0.000     0.000     0.000
   10/10/2018 15:10:00      0.000     0.000     0.000     0.000
   10/10/2018 15:15:00      0.000     0.000     0.000     0.000
   10/10/2018 15:20:00      0.000     0.000     0.000     0.000
   10/10/2018 15:25:00      0.000     0.000     0.000     0.000
   10/10/2018 15:30:00      0.000     0.000     0.000     0.000
   10/10/2018 15:35:00      0.000     0.000     0.000     0.000
   10/10/2018 15:40:00      0.000     0.000     0.000     0.000
   10/10/2018 15:45:00      0.000     0.000     0.000     0.000
   10/10/2018 15:50:00      0.000     0.000     0.000     0.000
   10/10/2018 15:55:00      0.000     0.000     0.000     0.000
   10/10/2018 16:00:00      0.000     0.000     0.000     0.000
   10/10/2018 16:05:00      0.000     0.000     0.000     0.000
   10/10/2018 16:10:00      0.000     0.000     0.000     0.000
   10/10/2018 16:15:00      0.000     0.000     0.000     0.000
   10/10/2018 16:20:00      0.000     0.000     0.000     0.000
   10/10/2018 16:25:00      0.000     0.000     0.000     0.000
   10/10/2018 16:30:00      0.000     0.000     0.000     0.000
   10/10/2018 16:35:00      0.000     0.000     0.000     0.000
   10/10/2018 16:40:00      0.000     0.000     0.000     0.000
   10/10/2018 16:45:00      0.000     0.000     0.000     0.000
   10/10/2018 16:50:00      0.000     0.000     0.000     0.000
   10/10/2018 16:55:00      0.000     0.000     0.000     0.000
   10/10/2018 17:00:00      0.000     0.000     0.000     0.000
   10/10/2018 17:05:00      0.000     0.000     0.000     0.000
   10/10/2018 17:10:00      0.000     0.000     0.000     0.000
   10/10/2018 17:15:00      0.000     0.000     0.000     0.000
   10/10/2018 17:20:00      0.000     0.000     0.000     0.000
   10/10/2018 17:25:00      0.000     0.000     0.000     0.000
   10/10/2018 17:30:00      0.000     0.000     0.000     0.000
   10/10/2018 17:35:00      0.000     0.000     0.000     0.000
   10/10/2018 17:40:00      0.000     0.000     0.000     0.000
   10/10/2018 17:45:00      0.000     0.000     0.000     0.000
   10/10/2018 17:50:00      0.000     0.000     0.000     0.000
   10/10/2018 17:55:00      0.000     0.000     0.000     0.000
   10/10/2018 18:00:00      0.000     0.000     0.000     0.000
   10/10/2018 18:05:00      0.000     0.000     0.000     0.000
   10/10/2018 18:10:00      0.000     0.000     0.000     0.000
   10/10/2018 18:15:00      0.000     0.000     0.000     0.000
   10/10/2018 18:20:00      0.000     0.000     0.000     0.000
   10/10/2018 18:25:00      0.000     0.000     0.000     0.000
   10/10/2018 18:30:00      0.000     0.000     0.000     0.000
   10/10/2018 18:35:00      0.000     0.000     0.000     0.000
   10/10/2018 18:40:00      0.000     0.000     0.000     0.000
   10/10/2018 18:45:00      0.000     0.000     0.000     0.000
   10/10/2018 18:50:00      0.000     0.000     0.000     0.000
   10/10/2018 18:55:00      0.000     0.000     0.000     0.000
   10/10/2018 19:00:00      0.000     0.000     0.000     0.000
   10/10/2018 19:05:00      0.000     0.000     0.000     0.000
   10/10/2018 19:10:00      0.000     0.000     0.000     0.000
   10/10/2018 19:15:00      0.000     0.000     0.000     0.000
   10/10/2018 19:20:00      0.000     0.000     0.000     0.000
   10/10/2018 19:25:00      0.000     0.000     0.000     0.000
   10/10/2018 19:30:00      0.000     0.000     0.000     0.000
   10/10/2018 19:35:00      0.000     0.000     0.000     0.000
   10/10/2018 19:40:00      0.000     0.000     0.000     0.000
   10/10/2018 19:45:00      0.000     0.000     0.000     0.000
   10/10/2018 19:50:00      0.000     0.000     0.000     0.000
   10/10/2018 19:55:00      0.000     0.000     0.000     0.000
   10/10/2018 20:00:00      0.000     0.000     0.000     0.000
   10/10/2018 20:05:00      0.000     0.000     0.000     0.000
   10/10/2018 20:10:00      0.000     0.000     0.000     0.000
   10/10/2018 20:15:00      0.000     0.000     0.000     0.000
   10/10/2018 20:20:00      0.000     0.000     0.000     0.000
   10/10/2018 20:25:00      0.000     0.000     0.000     0.000
   10/10/2018 20:30:00      0.000     0.000     0.000     0.000
   10/10/2018 20:35:00      0.000     0.000     0.000     0.000
   10/10/2018 20:40:00      0.000     0.000     0.000     0.000
   10/10/2018 20:45:00      0.000     0.000     0.000     0.000
   10/10/2018 20:50:00      0.000     0.000     0.000     0.000
   10/10/2018 20:55:00      0.000     0.000     0.000     0.000
   10/10/2018 21:00:00      0.000     0.000     0.000     0.000
   10/10/2018 21:05:00      0.000     0.000     0.000     0.000
   10/10/2018 21:10:00      0.000     0.000     0.000     0.000
   10/10/2018 21:15:00      0.000     0.000     0.000     0.000
   10/10/2018 21:20:00      0.000     0.000     0.000     0.000
   10/10/2018 21:25:00      0.000     0.000     0.000     0.000
   10/10/2018 21:30:00      0.000     0.000     0.000     0.000
   10/10/2018 21:35:00      0.000     0.000     0.000     0.000
   10/10/2018 21:40:00      0.000     0.000     0.000     0.000
   10/10/2018 21:45:00      0.000     0.000     0.000     0.000
   10/10/2018 21:50:00      0.000     0.000     0.000     0.000
   10/10/2018 21:55:00      0.000     0.000     0.000     0.000
   10/10/2018 22:00:00      0.000     0.000     0.000     0.000
   10/10/2018 22:05:00      0.000     0.000     0.000     0.000
   10/10/2018 22:10:00      0.000     0.000     0.000     0.000
   10/10/2018 22:15:00      0.000     0.000     0.000     0.000
   10/10/2018 22:20:00      0.000     0.000     0.000     0.000
   10/10/2018 22:25:00      0.000     0.000     0.000     0.000
   10/10/2018 22:30:00      0.000     0.000     0.000     0.000
   10/10/2018 22:35:00      0.000     0.000     0.000     0.000
   10/10/2018 22:40:00      0.000     0.000     0.000     0.000
   10/10/2018 22:45:00      0.000     0.000     0.000     0.000
   10/10/2018 22:50:00      0.000     0.000     0.000     0.000
   10/10/2018 22:55:00      0.000     0.000     0.000     0.000
   10/10/2018 23:00:00      0.000     0.000     0.000     0.000
   10/10/2018 23:05:00      0.000     0.000     0.000     0.000
   10/10/2018 23:10:00      0.000     0.000     0.000     0.000
   10/10/2018 23:15:00      0.000     0.000     0.000     0.000
   10/10/2018 23:20:00      0.000     0.000     0.000     0.000
   10/10/2018 23:25:00      0.000     0.000     0.000     0.000
   10/10/2018 23:30:00      0.000     0.000     0.000     0.000
   10/10/2018 23:35:00      0.000     0.000     0.000     0.000
   10/10/2018 23:40:00      0.000     0.000     0.000     0.000
   10/10/2018 23:45:00      0.000     0.000     0.000     0.000
   10/10/2018 23:50:00      0.000     0.000     0.000     0.000
   10/10/2018 23:55:00      0.000     0.000     0.000     0.000
   10/11/2018 00:00:00      0.000     0.000     0.000     0.000
  

  Analysis begun on:  Mon Feb  3 14:34:31 2020
  Analysis ended on:  Mon Feb  3 14:34:32 2020
  Total elapsed time: 00:00:01