
  EPA STORM WATER MANAGEMENT MODEL - VERSION 5.1 (Build 5.1.013)
  --------------------------------------------------------------

  Scenario Run: BASE 
  
  
  *********************
  Rainfall File Summary
  *********************
  Station    First        Last         Recording   Periods    Periods    Periods
  ID         Date         Date         Frequency  w/Precip    Missing    Malfunc.
  -------------------------------------------------------------------------------
  rg_1       01/01/2000   01/02/2000      60 min       241          0          0

  
  *********************************************************
  NOTE: The summary statistics displayed in this report are
  based on results found at every computational time step,  
  not just on results from each reporting time step.
  *********************************************************
  
  ****************
  Analysis Options
  ****************
  Flow Units ............... CMS
  Process Models:
    Rainfall/Runoff ........ YES
    RDII ................... NO
    Snowmelt ............... NO
    Groundwater ............ NO
    Flow Routing ........... YES
    Ponding Allowed ........ NO
    Water Quality .......... NO
  Infiltration Method ...... MODIFIED_GREEN_AMPT
  Flow Routing Method ...... KINWAVE
  Starting Date ............ 01/01/2000 00:00:00
  Ending Date .............. 01/02/2000 00:00:00
  Antecedent Dry Days ...... 5.0
  Report Time Step ......... 00:05:00
  Wet Time Step ............ 00:15:00
  Dry Time Step ............ 01:00:00
  Routing Time Step ........ 60.00 sec
  
  
  **************************        Volume         Depth
  Runoff Quantity Continuity     hectare-m            mm
  **************************     ---------       -------
  Total Precipitation ......         0.119         9.888
  Evaporation Loss .........         0.000         0.000
  Infiltration Loss ........         0.025         2.110
  Surface Runoff ...........         0.090         7.541
  Final Storage ............         0.003         0.267
  Continuity Error (%) .....        -0.303
  
  
  **************************        Volume        Volume
  Flow Routing Continuity        hectare-m      10^6 ltr
  **************************     ---------     ---------
  Dry Weather Inflow .......         0.000         0.000
  Wet Weather Inflow .......         0.090         0.904
  Groundwater Inflow .......         0.000         0.000
  RDII Inflow ..............         0.000         0.000
  External Inflow ..........         0.000         0.000
  External Outflow .........         0.089         0.889
  Flooding Loss ............         0.000         0.000
  Evaporation Loss .........         0.000         0.000
  Exfiltration Loss ........         0.000         0.000
  Initial Stored Volume ....         0.000         0.000
  Final Stored Volume ......         0.001         0.007
  Continuity Error (%) .....         0.896
  
  
  ********************************
  Highest Flow Instability Indexes
  ********************************
  All links are stable.
  
  
  *************************
  Routing Time Step Summary
  *************************
  Minimum Time Step           :    60.00 sec
  Average Time Step           :    60.00 sec
  Maximum Time Step           :    60.00 sec
  Percent in Steady State     :     0.00
  Average Iterations per Step :     1.10
  Percent Not Converging      :     0.00
  
  
  ***************************
  Subcatchment Runoff Summary
  ***************************
  
  ------------------------------------------------------------------------------------------------------------------------------
                            Total      Total      Total      Total     Imperv       Perv      Total       Total     Peak  Runoff
                           Precip      Runon       Evap      Infil     Runoff     Runoff     Runoff      Runoff   Runoff   Coeff
  Subcatchment                 mm         mm         mm         mm         mm         mm         mm    10^6 ltr      CMS
  ------------------------------------------------------------------------------------------------------------------------------
  S1                         9.89       0.00       0.00       0.44       8.85       0.39       9.24        0.37     0.09   0.934
  S2                         9.89       0.00       0.00       5.49       0.02       4.40       4.42        0.18     0.08   0.447
  S3                         9.89       0.00       0.00       0.39       9.07       0.40       8.97        0.36     0.15   0.907
  

  ***********************
  LID Performance Summary
  ***********************

  --------------------------------------------------------------------------------------------------------------------
                                         Total      Evap     Infil   Surface    Drain    Initial     Final  Continuity
                                        Inflow      Loss      Loss   Outflow   Outflow   Storage   Storage       Error
  Subcatchment      LID Control             mm        mm        mm        mm        mm        mm        mm           %
  --------------------------------------------------------------------------------------------------------------------
  S3                rb                 5450.82      0.00      0.00   4450.82      0.00      0.00   1000.00        0.00
  
  ******************
  Node Depth Summary
  ******************
  
  ---------------------------------------------------------------------------------
                                 Average  Maximum  Maximum  Time of Max    Reported
                                   Depth    Depth      HGL   Occurrence   Max Depth
  Node                 Type       Meters   Meters   Meters  days hr:min      Meters
  ---------------------------------------------------------------------------------
  J3                   JUNCTION     0.02     0.15    93.15     0  12:54        0.15
  J1                   JUNCTION     0.03     0.14    96.14     0  13:00        0.14
  J4                   JUNCTION     0.04     0.25    88.25     0  13:05        0.25
  J2                   JUNCTION     0.04     0.26    90.26     0  13:00        0.26
  OUT1                 OUTFALL      0.03     0.17    85.17     0  13:04        0.17
  
  
  *******************
  Node Inflow Summary
  *******************
  
  -------------------------------------------------------------------------------------------------
                                  Maximum  Maximum                  Lateral       Total        Flow
                                  Lateral    Total  Time of Max      Inflow      Inflow     Balance
                                   Inflow   Inflow   Occurrence      Volume      Volume       Error
  Node                 Type           CMS      CMS  days hr:min    10^6 ltr    10^6 ltr     Percent
  -------------------------------------------------------------------------------------------------
  J3                   JUNCTION     0.149    0.149     0  12:54       0.358       0.358      -0.000
  J1                   JUNCTION     0.094    0.094     0  13:00       0.369       0.369       0.000
  J4                   JUNCTION     0.000    0.263     0  13:02           0       0.891       0.000
  J2                   JUNCTION     0.081    0.167     0  13:00       0.177       0.542       0.000
  OUT1                 OUTFALL      0.000    0.261     0  13:04           0       0.889       0.000
  
  
  *********************
  Node Flooding Summary
  *********************
  
  No nodes were flooded.
  
  
  ***********************
  Outfall Loading Summary
  ***********************
  
  -----------------------------------------------------------
                         Flow       Avg       Max       Total
                         Freq      Flow      Flow      Volume
  Outfall Node           Pcnt       CMS       CMS    10^6 ltr
  -----------------------------------------------------------
  OUT1                  91.94     0.011     0.261       0.889
  -----------------------------------------------------------
  System                91.94     0.011     0.261       0.889
  
  
  ********************
  Link Flow Summary
  ********************
  
  -----------------------------------------------------------------------------
                                 Maximum  Time of Max   Maximum    Max/    Max/
                                  |Flow|   Occurrence   |Veloc|    Full    Full
  Link                 Type          CMS  days hr:min     m/sec    Flow   Depth
  -----------------------------------------------------------------------------
  C3                   CONDUIT     0.135     0  12:57      1.70    0.02    0.10
  C4                   CONDUIT     0.261     0  13:04      2.01    0.02    0.09
  C2                   CONDUIT     0.159     0  13:05      1.09    0.14    0.25
  C1                   CONDUIT     0.091     0  13:02      1.40    0.04    0.14
  
  
  *************************
  Conduit Surcharge Summary
  *************************
  
  No conduits were surcharged.
  
  
  ********************
  Subcatchment Results
  ********************
  
  <<< Subcatchment S1 >>>
  ---------------------------------------------------
  Date        Time        Precip.    Losses    Runoff
                            mm/hr     mm/hr       CMS
  ---------------------------------------------------
   01/01/2000 00:05:00      0.000     0.000    0.0000
   01/01/2000 00:10:00      0.000     0.000    0.0000
   01/01/2000 00:15:00      0.000     0.000    0.0000
   01/01/2000 00:20:00      0.000     0.000    0.0000
   01/01/2000 00:25:00      0.000     0.000    0.0000
   01/01/2000 00:30:00      0.000     0.000    0.0000
   01/01/2000 00:35:00      0.000     0.000    0.0000
   01/01/2000 00:40:00      0.000     0.000    0.0000
   01/01/2000 00:45:00      0.000     0.000    0.0000
   01/01/2000 00:50:00      0.000     0.000    0.0000
   01/01/2000 00:55:00      0.000     0.000    0.0000
   01/01/2000 01:00:00      0.101     0.000    0.0000
   01/01/2000 01:05:00      0.101     0.008    0.0000
   01/01/2000 01:10:00      0.101     0.008    0.0000
   01/01/2000 01:15:00      0.103     0.009    0.0000
   01/01/2000 01:20:00      0.103     0.009    0.0000
   01/01/2000 01:25:00      0.105     0.009    0.0000
   01/01/2000 01:30:00      0.105     0.009    0.0000
   01/01/2000 01:35:00      0.105     0.009    0.0000
   01/01/2000 01:40:00      0.107     0.009    0.0000
   01/01/2000 01:45:00      0.107     0.009    0.0000
   01/01/2000 01:50:00      0.109     0.009    0.0000
   01/01/2000 01:55:00      0.109     0.009    0.0000
   01/01/2000 02:00:00      0.111     0.009    0.0000
   01/01/2000 02:05:00      0.111     0.009    0.0000
   01/01/2000 02:10:00      0.111     0.009    0.0000
   01/01/2000 02:15:00      0.113     0.009    0.0000
   01/01/2000 02:20:00      0.113     0.009    0.0000
   01/01/2000 02:25:00      0.115     0.010    0.0000
   01/01/2000 02:30:00      0.115     0.010    0.0003
   01/01/2000 02:35:00      0.115     0.010    0.0003
   01/01/2000 02:40:00      0.117     0.010    0.0004
   01/01/2000 02:45:00      0.117     0.010    0.0004
   01/01/2000 02:50:00      0.119     0.010    0.0005
   01/01/2000 02:55:00      0.119     0.010    0.0005
   01/01/2000 03:00:00      0.121     0.010    0.0006
   01/01/2000 03:05:00      0.121     0.010    0.0006
   01/01/2000 03:10:00      0.121     0.010    0.0006
   01/01/2000 03:15:00      0.123     0.010    0.0007
   01/01/2000 03:20:00      0.123     0.010    0.0007
   01/01/2000 03:25:00      0.125     0.010    0.0007
   01/01/2000 03:30:00      0.125     0.010    0.0008
   01/01/2000 03:35:00      0.125     0.010    0.0008
   01/01/2000 03:40:00      0.127     0.011    0.0009
   01/01/2000 03:45:00      0.127     0.011    0.0009
   01/01/2000 03:50:00      0.129     0.011    0.0009
   01/01/2000 03:55:00      0.129     0.011    0.0009
   01/01/2000 04:00:00      0.131     0.011    0.0010
   01/01/2000 04:05:00      0.131     0.011    0.0010
   01/01/2000 04:10:00      0.131     0.011    0.0010
   01/01/2000 04:15:00      0.133     0.011    0.0010
   01/01/2000 04:20:00      0.133     0.011    0.0011
   01/01/2000 04:25:00      0.135     0.011    0.0011
   01/01/2000 04:30:00      0.135     0.011    0.0011
   01/01/2000 04:35:00      0.135     0.011    0.0011
   01/01/2000 04:40:00      0.137     0.011    0.0012
   01/01/2000 04:45:00      0.137     0.011    0.0012
   01/01/2000 04:50:00      0.139     0.012    0.0012
   01/01/2000 04:55:00      0.139     0.012    0.0012
   01/01/2000 05:00:00      0.141     0.012    0.0012
   01/01/2000 05:05:00      0.141     0.012    0.0012
   01/01/2000 05:10:00      0.143     0.012    0.0013
   01/01/2000 05:15:00      0.145     0.012    0.0013
   01/01/2000 05:20:00      0.147     0.012    0.0013
   01/01/2000 05:25:00      0.149     0.012    0.0013
   01/01/2000 05:30:00      0.151     0.012    0.0013
   01/01/2000 05:35:00      0.153     0.013    0.0014
   01/01/2000 05:40:00      0.153     0.013    0.0014
   01/01/2000 05:45:00      0.155     0.013    0.0014
   01/01/2000 05:50:00      0.157     0.013    0.0014
   01/01/2000 05:55:00      0.159     0.013    0.0014
   01/01/2000 06:00:00      0.161     0.013    0.0014
   01/01/2000 06:05:00      0.163     0.013    0.0015
   01/01/2000 06:10:00      0.163     0.014    0.0015
   01/01/2000 06:15:00      0.165     0.014    0.0015
   01/01/2000 06:20:00      0.167     0.014    0.0015
   01/01/2000 06:25:00      0.169     0.014    0.0015
   01/01/2000 06:30:00      0.171     0.014    0.0015
   01/01/2000 06:35:00      0.173     0.014    0.0016
   01/01/2000 06:40:00      0.173     0.014    0.0016
   01/01/2000 06:45:00      0.175     0.015    0.0016
   01/01/2000 06:50:00      0.177     0.015    0.0016
   01/01/2000 06:55:00      0.179     0.015    0.0016
   01/01/2000 07:00:00      0.181     0.015    0.0017
   01/01/2000 07:05:00      0.183     0.015    0.0017
   01/01/2000 07:10:00      0.183     0.015    0.0017
   01/01/2000 07:15:00      0.185     0.015    0.0017
   01/01/2000 07:20:00      0.187     0.016    0.0017
   01/01/2000 07:25:00      0.189     0.016    0.0017
   01/01/2000 07:30:00      0.191     0.016    0.0018
   01/01/2000 07:35:00      0.193     0.016    0.0018
   01/01/2000 07:40:00      0.193     0.016    0.0018
   01/01/2000 07:45:00      0.195     0.016    0.0018
   01/01/2000 07:50:00      0.197     0.016    0.0018
   01/01/2000 07:55:00      0.199     0.017    0.0018
   01/01/2000 08:00:00      0.201     0.017    0.0019
   01/01/2000 08:05:00      0.203     0.017    0.0019
   01/01/2000 08:10:00      0.203     0.017    0.0019
   01/01/2000 08:15:00      0.205     0.017    0.0019
   01/01/2000 08:20:00      0.207     0.017    0.0019
   01/01/2000 08:25:00      0.209     0.017    0.0020
   01/01/2000 08:30:00      0.211     0.018    0.0020
   01/01/2000 08:35:00      0.213     0.018    0.0020
   01/01/2000 08:40:00      0.213     0.018    0.0020
   01/01/2000 08:45:00      0.215     0.018    0.0020
   01/01/2000 08:50:00      0.217     0.018    0.0020
   01/01/2000 08:55:00      0.219     0.018    0.0021
   01/01/2000 09:00:00      0.225     0.019    0.0021
   01/01/2000 09:05:00      0.235     0.019    0.0021
   01/01/2000 09:10:00      0.235     0.020    0.0021
   01/01/2000 09:15:00      0.245     0.020    0.0022
   01/01/2000 09:20:00      0.255     0.021    0.0022
   01/01/2000 09:25:00      0.265     0.022    0.0023
   01/01/2000 09:30:00      0.275     0.023    0.0023
   01/01/2000 09:35:00      0.285     0.023    0.0024
   01/01/2000 09:40:00      0.285     0.024    0.0024
   01/01/2000 09:45:00      0.295     0.025    0.0025
   01/01/2000 09:50:00      0.305     0.025    0.0025
   01/01/2000 09:55:00      0.315     0.026    0.0026
   01/01/2000 10:00:00      0.320     0.027    0.0027
   01/01/2000 10:05:00      0.320     0.027    0.0027
   01/01/2000 10:10:00      0.320     0.027    0.0028
   01/01/2000 10:15:00      0.320     0.027    0.0028
   01/01/2000 10:20:00      0.320     0.027    0.0029
   01/01/2000 10:25:00      0.320     0.027    0.0029
   01/01/2000 10:30:00      0.328     0.027    0.0030
   01/01/2000 10:35:00      0.344     0.027    0.0030
   01/01/2000 10:40:00      0.344     0.029    0.0031
   01/01/2000 10:45:00      0.360     0.030    0.0031
   01/01/2000 10:50:00      0.376     0.031    0.0032
   01/01/2000 10:55:00      0.392     0.033    0.0033
   01/01/2000 11:00:00      0.412     0.034    0.0034
   01/01/2000 11:05:00      0.436     0.034    0.0035
   01/01/2000 11:10:00      0.436     0.034    0.0036
   01/01/2000 11:15:00      0.460     0.034    0.0037
   01/01/2000 11:20:00      0.484     0.034    0.0039
   01/01/2000 11:25:00      0.508     0.034    0.0040
   01/01/2000 11:30:00      0.540     0.034    0.0042
   01/01/2000 11:35:00      0.580     0.034    0.0044
   01/01/2000 11:40:00      0.580     0.034    0.0046
   01/01/2000 11:45:00      0.620     0.034    0.0048
   01/01/2000 11:50:00      0.660     0.034    0.0050
   01/01/2000 11:55:00      0.700     0.034    0.0053
   01/01/2000 12:00:00      0.768     0.034    0.0056
   01/01/2000 12:05:00      0.864     0.034    0.0060
   01/01/2000 12:10:00      0.864     0.034    0.0065
   01/01/2000 12:15:00      0.960     0.034    0.0070
   01/01/2000 12:20:00      1.056     0.034    0.0076
   01/01/2000 12:25:00      1.152     0.034    0.0083
   01/01/2000 12:30:00      2.384     0.034    0.0095
   01/01/2000 12:35:00      4.752     0.034    0.0127
   01/01/2000 12:40:00      4.752     0.034    0.0214
   01/01/2000 12:45:00      7.643     0.034    0.0363
   01/01/2000 12:50:00     13.707     0.035    0.0646
   01/01/2000 12:55:00      9.514     0.035    0.0890
   01/01/2000 13:00:00      1.896     0.035    0.0892
   01/01/2000 13:05:00      1.668     0.035    0.0632
   01/01/2000 13:10:00      1.668     0.035    0.0491
   01/01/2000 13:15:00      1.440     0.034    0.0393
   01/01/2000 13:20:00      1.212     0.034    0.0322
   01/01/2000 13:25:00      0.984     0.034    0.0268
   01/01/2000 13:30:00      0.844     0.034    0.0227
   01/01/2000 13:35:00      0.792     0.034    0.0194
   01/01/2000 13:40:00      0.792     0.034    0.0170
   01/01/2000 13:45:00      0.740     0.034    0.0151
   01/01/2000 13:50:00      0.688     0.034    0.0136
   01/01/2000 13:55:00      0.636     0.034    0.0123
   01/01/2000 14:00:00      0.596     0.034    0.0112
   01/01/2000 14:05:00      0.568     0.034    0.0102
   01/01/2000 14:10:00      0.568     0.034    0.0095
   01/01/2000 14:15:00      0.540     0.034    0.0088
   01/01/2000 14:20:00      0.512     0.034    0.0083
   01/01/2000 14:25:00      0.484     0.034    0.0078
   01/01/2000 14:30:00      0.460     0.034    0.0073
   01/01/2000 14:35:00      0.440     0.034    0.0069
   01/01/2000 14:40:00      0.440     0.034    0.0065
   01/01/2000 14:45:00      0.420     0.034    0.0062
   01/01/2000 14:50:00      0.400     0.034    0.0059
   01/01/2000 14:55:00      0.380     0.034    0.0056
   01/01/2000 15:00:00      0.367     0.034    0.0054
   01/01/2000 15:05:00      0.359     0.034    0.0051
   01/01/2000 15:10:00      0.359     0.034    0.0049
   01/01/2000 15:15:00      0.353     0.034    0.0047
   01/01/2000 15:20:00      0.345     0.034    0.0046
   01/01/2000 15:25:00      0.339     0.034    0.0044
   01/01/2000 15:30:00      0.331     0.034    0.0043
   01/01/2000 15:35:00      0.325     0.034    0.0042
   01/01/2000 15:40:00      0.325     0.034    0.0040
   01/01/2000 15:45:00      0.317     0.034    0.0039
   01/01/2000 15:50:00      0.311     0.034    0.0038
   01/01/2000 15:55:00      0.303     0.033    0.0038
   01/01/2000 16:00:00      0.297     0.033    0.0037
   01/01/2000 16:05:00      0.289     0.033    0.0036
   01/01/2000 16:10:00      0.289     0.033    0.0035
   01/01/2000 16:15:00      0.283     0.033    0.0034
   01/01/2000 16:20:00      0.275     0.033    0.0034
   01/01/2000 16:25:00      0.269     0.033    0.0033
   01/01/2000 16:30:00      0.261     0.033    0.0032
   01/01/2000 16:35:00      0.255     0.033    0.0032
   01/01/2000 16:40:00      0.255     0.024    0.0031
   01/01/2000 16:45:00      0.247     0.021    0.0030
   01/01/2000 16:50:00      0.241     0.020    0.0030
   01/01/2000 16:55:00      0.233     0.019    0.0029
   01/01/2000 17:00:00      0.229     0.019    0.0028
   01/01/2000 17:05:00      0.226     0.019    0.0028
   01/01/2000 17:10:00      0.226     0.019    0.0027
   01/01/2000 17:15:00      0.224     0.019    0.0027
   01/01/2000 17:20:00      0.221     0.018    0.0026
   01/01/2000 17:25:00      0.219     0.018    0.0026
   01/01/2000 17:30:00      0.216     0.018    0.0025
   01/01/2000 17:35:00      0.214     0.018    0.0025
   01/01/2000 17:40:00      0.214     0.018    0.0025
   01/01/2000 17:45:00      0.211     0.018    0.0024
   01/01/2000 17:50:00      0.209     0.017    0.0024
   01/01/2000 17:55:00      0.206     0.017    0.0024
   01/01/2000 18:00:00      0.204     0.017    0.0023
   01/01/2000 18:05:00      0.201     0.017    0.0023
   01/01/2000 18:10:00      0.201     0.017    0.0023
   01/01/2000 18:15:00      0.199     0.017    0.0023
   01/01/2000 18:20:00      0.196     0.016    0.0022
   01/01/2000 18:25:00      0.194     0.016    0.0022
   01/01/2000 18:30:00      0.191     0.016    0.0022
   01/01/2000 18:35:00      0.189     0.016    0.0022
   01/01/2000 18:40:00      0.189     0.016    0.0021
   01/01/2000 18:45:00      0.186     0.016    0.0021
   01/01/2000 18:50:00      0.184     0.015    0.0021
   01/01/2000 18:55:00      0.181     0.015    0.0021
   01/01/2000 19:00:00      0.179     0.015    0.0020
   01/01/2000 19:05:00      0.176     0.015    0.0020
   01/01/2000 19:10:00      0.176     0.015    0.0020
   01/01/2000 19:15:00      0.174     0.015    0.0020
   01/01/2000 19:20:00      0.171     0.014    0.0020
   01/01/2000 19:25:00      0.169     0.014    0.0019
   01/01/2000 19:30:00      0.166     0.014    0.0019
   01/01/2000 19:35:00      0.164     0.014    0.0019
   01/01/2000 19:40:00      0.164     0.014    0.0019
   01/01/2000 19:45:00      0.161     0.013    0.0018
   01/01/2000 19:50:00      0.159     0.013    0.0018
   01/01/2000 19:55:00      0.156     0.013    0.0018
   01/01/2000 20:00:00      0.154     0.013    0.0018
   01/01/2000 20:05:00      0.154     0.013    0.0018
   01/01/2000 20:10:00      0.151     0.013    0.0017
   01/01/2000 20:15:00      0.149     0.012    0.0017
   01/01/2000 20:20:00      0.146     0.012    0.0017
   01/01/2000 20:25:00      0.144     0.012    0.0017
   01/01/2000 20:30:00      0.141     0.012    0.0017
   01/01/2000 20:35:00      0.141     0.012    0.0016
   01/01/2000 20:40:00      0.139     0.012    0.0016
   01/01/2000 20:45:00      0.136     0.011    0.0016
   01/01/2000 20:50:00      0.134     0.011    0.0016
   01/01/2000 20:55:00      0.131     0.011    0.0016
   01/01/2000 21:00:00      0.130     0.011    0.0015
   01/01/2000 21:05:00      0.130     0.011    0.0015
   01/01/2000 21:10:00      0.129     0.011    0.0015
   01/01/2000 21:15:00      0.129     0.011    0.0015
   01/01/2000 21:20:00      0.128     0.011    0.0015
   01/01/2000 21:25:00      0.128     0.011    0.0015
   01/01/2000 21:30:00      0.127     0.011    0.0014
   01/01/2000 21:35:00      0.127     0.011    0.0014
   01/01/2000 21:40:00      0.127     0.011    0.0014
   01/01/2000 21:45:00      0.126     0.011    0.0014
   01/01/2000 21:50:00      0.126     0.011    0.0014
   01/01/2000 21:55:00      0.125     0.010    0.0014
   01/01/2000 22:00:00      0.125     0.010    0.0014
   01/01/2000 22:05:00      0.125     0.010    0.0014
   01/01/2000 22:10:00      0.124     0.010    0.0014
   01/01/2000 22:15:00      0.124     0.010    0.0013
   01/01/2000 22:20:00      0.123     0.010    0.0013
   01/01/2000 22:25:00      0.123     0.010    0.0013
   01/01/2000 22:30:00      0.122     0.010    0.0013
   01/01/2000 22:35:00      0.122     0.010    0.0013
   01/01/2000 22:40:00      0.122     0.010    0.0013
   01/01/2000 22:45:00      0.121     0.010    0.0013
   01/01/2000 22:50:00      0.121     0.010    0.0013
   01/01/2000 22:55:00      0.120     0.010    0.0013
   01/01/2000 23:00:00      0.120     0.010    0.0013
   01/01/2000 23:05:00      0.120     0.010    0.0013
   01/01/2000 23:10:00      0.119     0.010    0.0013
   01/01/2000 23:15:00      0.119     0.010    0.0013
   01/01/2000 23:20:00      0.118     0.010    0.0013
   01/01/2000 23:25:00      0.118     0.010    0.0013
   01/01/2000 23:30:00      0.117     0.010    0.0013
   01/01/2000 23:35:00      0.117     0.010    0.0013
   01/01/2000 23:40:00      0.117     0.010    0.0012
   01/01/2000 23:45:00      0.116     0.010    0.0012
   01/01/2000 23:50:00      0.116     0.010    0.0012
   01/01/2000 23:55:00      0.115     0.010    0.0012
   01/02/2000 00:00:00      0.115     0.010    0.0012
  
  
  <<< Subcatchment S2 >>>
  ---------------------------------------------------
  Date        Time        Precip.    Losses    Runoff
                            mm/hr     mm/hr       CMS
  ---------------------------------------------------
   01/01/2000 00:05:00      0.000     0.000    0.0000
   01/01/2000 00:10:00      0.000     0.000    0.0000
   01/01/2000 00:15:00      0.000     0.000    0.0000
   01/01/2000 00:20:00      0.000     0.000    0.0000
   01/01/2000 00:25:00      0.000     0.000    0.0000
   01/01/2000 00:30:00      0.000     0.000    0.0000
   01/01/2000 00:35:00      0.000     0.000    0.0000
   01/01/2000 00:40:00      0.000     0.000    0.0000
   01/01/2000 00:45:00      0.000     0.000    0.0000
   01/01/2000 00:50:00      0.000     0.000    0.0000
   01/01/2000 00:55:00      0.000     0.000    0.0000
   01/01/2000 01:00:00      0.101     0.000    0.0000
   01/01/2000 01:05:00      0.101     0.101    0.0000
   01/01/2000 01:10:00      0.101     0.101    0.0000
   01/01/2000 01:15:00      0.103     0.103    0.0000
   01/01/2000 01:20:00      0.103     0.103    0.0000
   01/01/2000 01:25:00      0.105     0.105    0.0000
   01/01/2000 01:30:00      0.105     0.105    0.0000
   01/01/2000 01:35:00      0.105     0.105    0.0000
   01/01/2000 01:40:00      0.107     0.107    0.0000
   01/01/2000 01:45:00      0.107     0.107    0.0000
   01/01/2000 01:50:00      0.109     0.109    0.0000
   01/01/2000 01:55:00      0.109     0.109    0.0000
   01/01/2000 02:00:00      0.111     0.111    0.0000
   01/01/2000 02:05:00      0.111     0.111    0.0000
   01/01/2000 02:10:00      0.111     0.111    0.0000
   01/01/2000 02:15:00      0.113     0.113    0.0000
   01/01/2000 02:20:00      0.113     0.113    0.0000
   01/01/2000 02:25:00      0.115     0.115    0.0000
   01/01/2000 02:30:00      0.115     0.115    0.0000
   01/01/2000 02:35:00      0.115     0.115    0.0000
   01/01/2000 02:40:00      0.117     0.117    0.0000
   01/01/2000 02:45:00      0.117     0.117    0.0000
   01/01/2000 02:50:00      0.119     0.119    0.0000
   01/01/2000 02:55:00      0.119     0.119    0.0000
   01/01/2000 03:00:00      0.121     0.119    0.0000
   01/01/2000 03:05:00      0.121     0.121    0.0000
   01/01/2000 03:10:00      0.121     0.121    0.0000
   01/01/2000 03:15:00      0.123     0.123    0.0000
   01/01/2000 03:20:00      0.123     0.123    0.0000
   01/01/2000 03:25:00      0.125     0.125    0.0000
   01/01/2000 03:30:00      0.125     0.125    0.0000
   01/01/2000 03:35:00      0.125     0.125    0.0000
   01/01/2000 03:40:00      0.127     0.127    0.0000
   01/01/2000 03:45:00      0.127     0.127    0.0000
   01/01/2000 03:50:00      0.129     0.129    0.0000
   01/01/2000 03:55:00      0.129     0.129    0.0000
   01/01/2000 04:00:00      0.131     0.129    0.0000
   01/01/2000 04:05:00      0.131     0.131    0.0000
   01/01/2000 04:10:00      0.131     0.131    0.0000
   01/01/2000 04:15:00      0.133     0.133    0.0000
   01/01/2000 04:20:00      0.133     0.133    0.0000
   01/01/2000 04:25:00      0.135     0.135    0.0000
   01/01/2000 04:30:00      0.135     0.135    0.0000
   01/01/2000 04:35:00      0.135     0.135    0.0000
   01/01/2000 04:40:00      0.137     0.137    0.0000
   01/01/2000 04:45:00      0.137     0.137    0.0000
   01/01/2000 04:50:00      0.139     0.139    0.0000
   01/01/2000 04:55:00      0.139     0.139    0.0000
   01/01/2000 05:00:00      0.141     0.139    0.0000
   01/01/2000 05:05:00      0.141     0.141    0.0000
   01/01/2000 05:10:00      0.143     0.143    0.0000
   01/01/2000 05:15:00      0.145     0.145    0.0000
   01/01/2000 05:20:00      0.147     0.147    0.0000
   01/01/2000 05:25:00      0.149     0.149    0.0000
   01/01/2000 05:30:00      0.151     0.149    0.0000
   01/01/2000 05:35:00      0.153     0.151    0.0000
   01/01/2000 05:40:00      0.153     0.153    0.0000
   01/01/2000 05:45:00      0.155     0.155    0.0000
   01/01/2000 05:50:00      0.157     0.157    0.0000
   01/01/2000 05:55:00      0.159     0.159    0.0000
   01/01/2000 06:00:00      0.161     0.161    0.0000
   01/01/2000 06:05:00      0.163     0.161    0.0000
   01/01/2000 06:10:00      0.163     0.163    0.0000
   01/01/2000 06:15:00      0.165     0.165    0.0000
   01/01/2000 06:20:00      0.167     0.167    0.0000
   01/01/2000 06:25:00      0.169     0.169    0.0000
   01/01/2000 06:30:00      0.171     0.171    0.0000
   01/01/2000 06:35:00      0.173     0.171    0.0000
   01/01/2000 06:40:00      0.173     0.173    0.0000
   01/01/2000 06:45:00      0.175     0.175    0.0000
   01/01/2000 06:50:00      0.177     0.177    0.0000
   01/01/2000 06:55:00      0.179     0.179    0.0000
   01/01/2000 07:00:00      0.181     0.181    0.0000
   01/01/2000 07:05:00      0.183     0.181    0.0000
   01/01/2000 07:10:00      0.183     0.183    0.0000
   01/01/2000 07:15:00      0.185     0.185    0.0000
   01/01/2000 07:20:00      0.187     0.187    0.0000
   01/01/2000 07:25:00      0.189     0.189    0.0000
   01/01/2000 07:30:00      0.191     0.191    0.0000
   01/01/2000 07:35:00      0.193     0.191    0.0000
   01/01/2000 07:40:00      0.193     0.193    0.0000
   01/01/2000 07:45:00      0.195     0.195    0.0000
   01/01/2000 07:50:00      0.197     0.197    0.0000
   01/01/2000 07:55:00      0.199     0.199    0.0000
   01/01/2000 08:00:00      0.201     0.201    0.0000
   01/01/2000 08:05:00      0.203     0.201    0.0000
   01/01/2000 08:10:00      0.203     0.203    0.0000
   01/01/2000 08:15:00      0.205     0.205    0.0000
   01/01/2000 08:20:00      0.207     0.207    0.0000
   01/01/2000 08:25:00      0.209     0.209    0.0000
   01/01/2000 08:30:00      0.211     0.211    0.0000
   01/01/2000 08:35:00      0.213     0.211    0.0000
   01/01/2000 08:40:00      0.213     0.213    0.0000
   01/01/2000 08:45:00      0.215     0.215    0.0000
   01/01/2000 08:50:00      0.217     0.217    0.0000
   01/01/2000 08:55:00      0.219     0.219    0.0000
   01/01/2000 09:00:00      0.225     0.225    0.0000
   01/01/2000 09:05:00      0.235     0.225    0.0000
   01/01/2000 09:10:00      0.235     0.235    0.0000
   01/01/2000 09:15:00      0.245     0.245    0.0000
   01/01/2000 09:20:00      0.255     0.255    0.0000
   01/01/2000 09:25:00      0.265     0.265    0.0000
   01/01/2000 09:30:00      0.275     0.274    0.0000
   01/01/2000 09:35:00      0.285     0.274    0.0000
   01/01/2000 09:40:00      0.285     0.284    0.0000
   01/01/2000 09:45:00      0.295     0.294    0.0000
   01/01/2000 09:50:00      0.305     0.304    0.0000
   01/01/2000 09:55:00      0.315     0.314    0.0000
   01/01/2000 10:00:00      0.320     0.319    0.0000
   01/01/2000 10:05:00      0.320     0.319    0.0000
   01/01/2000 10:10:00      0.320     0.319    0.0000
   01/01/2000 10:15:00      0.320     0.319    0.0000
   01/01/2000 10:20:00      0.320     0.319    0.0000
   01/01/2000 10:25:00      0.320     0.319    0.0000
   01/01/2000 10:30:00      0.328     0.327    0.0000
   01/01/2000 10:35:00      0.344     0.327    0.0000
   01/01/2000 10:40:00      0.344     0.343    0.0000
   01/01/2000 10:45:00      0.360     0.359    0.0000
   01/01/2000 10:50:00      0.376     0.375    0.0000
   01/01/2000 10:55:00      0.392     0.391    0.0000
   01/01/2000 11:00:00      0.412     0.411    0.0000
   01/01/2000 11:05:00      0.436     0.411    0.0000
   01/01/2000 11:10:00      0.436     0.435    0.0000
   01/01/2000 11:15:00      0.460     0.459    0.0000
   01/01/2000 11:20:00      0.484     0.483    0.0000
   01/01/2000 11:25:00      0.508     0.479    0.0000
   01/01/2000 11:30:00      0.540     0.475    0.0000
   01/01/2000 11:35:00      0.580     0.475    0.0000
   01/01/2000 11:40:00      0.580     0.471    0.0000
   01/01/2000 11:45:00      0.620     0.468    0.0000
   01/01/2000 11:50:00      0.660     0.465    0.0000
   01/01/2000 11:55:00      0.700     0.463    0.0000
   01/01/2000 12:00:00      0.768     0.460    0.0000
   01/01/2000 12:05:00      0.864     0.460    0.0000
   01/01/2000 12:10:00      0.864     0.458    0.0004
   01/01/2000 12:15:00      0.960     0.456    0.0006
   01/01/2000 12:20:00      1.056     0.455    0.0010
   01/01/2000 12:25:00      1.152     0.453    0.0015
   01/01/2000 12:30:00      2.384     0.452    0.0023
   01/01/2000 12:35:00      4.752     0.452    0.0044
   01/01/2000 12:40:00      4.752     0.454    0.0110
   01/01/2000 12:45:00      7.643     0.461    0.0237
   01/01/2000 12:50:00     13.707     0.471    0.0494
   01/01/2000 12:55:00      9.514     0.490    0.0734
   01/01/2000 13:00:00      1.896     0.492    0.0772
   01/01/2000 13:05:00      1.668     0.492    0.0566
   01/01/2000 13:10:00      1.668     0.478    0.0443
   01/01/2000 13:15:00      1.440     0.467    0.0355
   01/01/2000 13:20:00      1.212     0.460    0.0289
   01/01/2000 13:25:00      0.984     0.453    0.0238
   01/01/2000 13:30:00      0.844     0.448    0.0197
   01/01/2000 13:35:00      0.792     0.448    0.0165
   01/01/2000 13:40:00      0.792     0.443    0.0141
   01/01/2000 13:45:00      0.740     0.439    0.0121
   01/01/2000 13:50:00      0.688     0.435    0.0105
   01/01/2000 13:55:00      0.636     0.432    0.0092
   01/01/2000 14:00:00      0.596     0.429    0.0081
   01/01/2000 14:05:00      0.568     0.429    0.0071
   01/01/2000 14:10:00      0.568     0.427    0.0063
   01/01/2000 14:15:00      0.540     0.424    0.0057
   01/01/2000 14:20:00      0.512     0.422    0.0051
   01/01/2000 14:25:00      0.484     0.420    0.0045
   01/01/2000 14:30:00      0.460     0.418    0.0040
   01/01/2000 14:35:00      0.440     0.418    0.0036
   01/01/2000 14:40:00      0.440     0.416    0.0032
   01/01/2000 14:45:00      0.420     0.414    0.0029
   01/01/2000 14:50:00      0.400     0.413    0.0026
   01/01/2000 14:55:00      0.380     0.411    0.0023
   01/01/2000 15:00:00      0.367     0.410    0.0021
   01/01/2000 15:05:00      0.359     0.410    0.0018
   01/01/2000 15:10:00      0.359     0.408    0.0016
   01/01/2000 15:15:00      0.353     0.407    0.0014
   01/01/2000 15:20:00      0.345     0.405    0.0013
   01/01/2000 15:25:00      0.339     0.404    0.0011
   01/01/2000 15:30:00      0.331     0.403    0.0010
   01/01/2000 15:35:00      0.325     0.403    0.0009
   01/01/2000 15:40:00      0.325     0.401    0.0008
   01/01/2000 15:45:00      0.317     0.400    0.0007
   01/01/2000 15:50:00      0.311     0.399    0.0006
   01/01/2000 15:55:00      0.303     0.398    0.0005
   01/01/2000 16:00:00      0.297     0.397    0.0004
   01/01/2000 16:05:00      0.289     0.397    0.0003
   01/01/2000 16:10:00      0.289     0.396    0.0000
   01/01/2000 16:15:00      0.283     0.395    0.0000
   01/01/2000 16:20:00      0.275     0.394    0.0000
   01/01/2000 16:25:00      0.269     0.393    0.0000
   01/01/2000 16:30:00      0.261     0.392    0.0000
   01/01/2000 16:35:00      0.255     0.392    0.0000
   01/01/2000 16:40:00      0.255     0.391    0.0000
   01/01/2000 16:45:00      0.247     0.390    0.0000
   01/01/2000 16:50:00      0.241     0.389    0.0000
   01/01/2000 16:55:00      0.233     0.388    0.0000
   01/01/2000 17:00:00      0.229     0.326    0.0000
   01/01/2000 17:05:00      0.226     0.326    0.0000
   01/01/2000 17:10:00      0.226     0.226    0.0000
   01/01/2000 17:15:00      0.224     0.224    0.0000
   01/01/2000 17:20:00      0.221     0.221    0.0000
   01/01/2000 17:25:00      0.219     0.219    0.0000
   01/01/2000 17:30:00      0.216     0.216    0.0000
   01/01/2000 17:35:00      0.214     0.216    0.0000
   01/01/2000 17:40:00      0.214     0.214    0.0000
   01/01/2000 17:45:00      0.211     0.211    0.0000
   01/01/2000 17:50:00      0.209     0.209    0.0000
   01/01/2000 17:55:00      0.206     0.206    0.0000
   01/01/2000 18:00:00      0.204     0.204    0.0000
   01/01/2000 18:05:00      0.201     0.204    0.0000
   01/01/2000 18:10:00      0.201     0.201    0.0000
   01/01/2000 18:15:00      0.199     0.199    0.0000
   01/01/2000 18:20:00      0.196     0.196    0.0000
   01/01/2000 18:25:00      0.194     0.194    0.0000
   01/01/2000 18:30:00      0.191     0.191    0.0000
   01/01/2000 18:35:00      0.189     0.191    0.0000
   01/01/2000 18:40:00      0.189     0.189    0.0000
   01/01/2000 18:45:00      0.186     0.186    0.0000
   01/01/2000 18:50:00      0.184     0.184    0.0000
   01/01/2000 18:55:00      0.181     0.181    0.0000
   01/01/2000 19:00:00      0.179     0.179    0.0000
   01/01/2000 19:05:00      0.176     0.179    0.0000
   01/01/2000 19:10:00      0.176     0.176    0.0000
   01/01/2000 19:15:00      0.174     0.174    0.0000
   01/01/2000 19:20:00      0.171     0.171    0.0000
   01/01/2000 19:25:00      0.169     0.169    0.0000
   01/01/2000 19:30:00      0.166     0.166    0.0000
   01/01/2000 19:35:00      0.164     0.166    0.0000
   01/01/2000 19:40:00      0.164     0.164    0.0000
   01/01/2000 19:45:00      0.161     0.161    0.0000
   01/01/2000 19:50:00      0.159     0.159    0.0000
   01/01/2000 19:55:00      0.156     0.156    0.0000
   01/01/2000 20:00:00      0.154     0.156    0.0000
   01/01/2000 20:05:00      0.154     0.154    0.0000
   01/01/2000 20:10:00      0.151     0.151    0.0000
   01/01/2000 20:15:00      0.149     0.149    0.0000
   01/01/2000 20:20:00      0.146     0.146    0.0000
   01/01/2000 20:25:00      0.144     0.144    0.0000
   01/01/2000 20:30:00      0.141     0.144    0.0000
   01/01/2000 20:35:00      0.141     0.141    0.0000
   01/01/2000 20:40:00      0.139     0.139    0.0000
   01/01/2000 20:45:00      0.136     0.136    0.0000
   01/01/2000 20:50:00      0.134     0.134    0.0000
   01/01/2000 20:55:00      0.131     0.131    0.0000
   01/01/2000 21:00:00      0.130     0.131    0.0000
   01/01/2000 21:05:00      0.130     0.130    0.0000
   01/01/2000 21:10:00      0.129     0.129    0.0000
   01/01/2000 21:15:00      0.129     0.129    0.0000
   01/01/2000 21:20:00      0.128     0.128    0.0000
   01/01/2000 21:25:00      0.128     0.128    0.0000
   01/01/2000 21:30:00      0.127     0.128    0.0000
   01/01/2000 21:35:00      0.127     0.127    0.0000
   01/01/2000 21:40:00      0.127     0.127    0.0000
   01/01/2000 21:45:00      0.126     0.126    0.0000
   01/01/2000 21:50:00      0.126     0.126    0.0000
   01/01/2000 21:55:00      0.125     0.125    0.0000
   01/01/2000 22:00:00      0.125     0.125    0.0000
   01/01/2000 22:05:00      0.125     0.125    0.0000
   01/01/2000 22:10:00      0.124     0.124    0.0000
   01/01/2000 22:15:00      0.124     0.124    0.0000
   01/01/2000 22:20:00      0.123     0.123    0.0000
   01/01/2000 22:25:00      0.123     0.123    0.0000
   01/01/2000 22:30:00      0.122     0.123    0.0000
   01/01/2000 22:35:00      0.122     0.122    0.0000
   01/01/2000 22:40:00      0.122     0.122    0.0000
   01/01/2000 22:45:00      0.121     0.121    0.0000
   01/01/2000 22:50:00      0.121     0.121    0.0000
   01/01/2000 22:55:00      0.120     0.120    0.0000
   01/01/2000 23:00:00      0.120     0.120    0.0000
   01/01/2000 23:05:00      0.120     0.120    0.0000
   01/01/2000 23:10:00      0.119     0.119    0.0000
   01/01/2000 23:15:00      0.119     0.119    0.0000
   01/01/2000 23:20:00      0.118     0.118    0.0000
   01/01/2000 23:25:00      0.118     0.118    0.0000
   01/01/2000 23:30:00      0.117     0.118    0.0000
   01/01/2000 23:35:00      0.117     0.117    0.0000
   01/01/2000 23:40:00      0.117     0.117    0.0000
   01/01/2000 23:45:00      0.116     0.116    0.0000
   01/01/2000 23:50:00      0.116     0.116    0.0000
   01/01/2000 23:55:00      0.115     0.115    0.0000
   01/02/2000 00:00:00      0.115     0.115    0.0000
  
  
  <<< Subcatchment S3 >>>
  ---------------------------------------------------
  Date        Time        Precip.    Losses    Runoff
                            mm/hr     mm/hr       CMS
  ---------------------------------------------------
   01/01/2000 00:05:00      0.000     0.000    0.0000
   01/01/2000 00:10:00      0.000     0.000    0.0000
   01/01/2000 00:15:00      0.000     0.000    0.0000
   01/01/2000 00:20:00      0.000     0.000    0.0000
   01/01/2000 00:25:00      0.000     0.000    0.0000
   01/01/2000 00:30:00      0.000     0.000    0.0000
   01/01/2000 00:35:00      0.000     0.000    0.0000
   01/01/2000 00:40:00      0.000     0.000    0.0000
   01/01/2000 00:45:00      0.000     0.000    0.0000
   01/01/2000 00:50:00      0.000     0.000    0.0000
   01/01/2000 00:55:00      0.000     0.000    0.0000
   01/01/2000 01:00:00      0.101     0.000    0.0000
   01/01/2000 01:05:00      0.101     0.008    0.0000
   01/01/2000 01:10:00      0.101     0.008    0.0000
   01/01/2000 01:15:00      0.103     0.008    0.0000
   01/01/2000 01:20:00      0.103     0.008    0.0000
   01/01/2000 01:25:00      0.105     0.008    0.0000
   01/01/2000 01:30:00      0.105     0.008    0.0000
   01/01/2000 01:35:00      0.105     0.008    0.0003
   01/01/2000 01:40:00      0.107     0.009    0.0004
   01/01/2000 01:45:00      0.107     0.009    0.0005
   01/01/2000 01:50:00      0.109     0.009    0.0006
   01/01/2000 01:55:00      0.109     0.009    0.0007
   01/01/2000 02:00:00      0.111     0.009    0.0007
   01/01/2000 02:05:00      0.111     0.009    0.0007
   01/01/2000 02:10:00      0.111     0.009    0.0008
   01/01/2000 02:15:00      0.113     0.009    0.0008
   01/01/2000 02:20:00      0.113     0.009    0.0008
   01/01/2000 02:25:00      0.115     0.009    0.0008
   01/01/2000 02:30:00      0.115     0.009    0.0008
   01/01/2000 02:35:00      0.115     0.009    0.0008
   01/01/2000 02:40:00      0.117     0.009    0.0008
   01/01/2000 02:45:00      0.117     0.009    0.0008
   01/01/2000 02:50:00      0.119     0.009    0.0008
   01/01/2000 02:55:00      0.119     0.009    0.0008
   01/01/2000 03:00:00      0.121     0.009    0.0008
   01/01/2000 03:05:00      0.121     0.010    0.0009
   01/01/2000 03:10:00      0.121     0.010    0.0009
   01/01/2000 03:15:00      0.123     0.010    0.0009
   01/01/2000 03:20:00      0.123     0.010    0.0009
   01/01/2000 03:25:00      0.125     0.010    0.0009
   01/01/2000 03:30:00      0.125     0.010    0.0009
   01/01/2000 03:35:00      0.125     0.010    0.0009
   01/01/2000 03:40:00      0.127     0.010    0.0009
   01/01/2000 03:45:00      0.127     0.010    0.0009
   01/01/2000 03:50:00      0.129     0.010    0.0009
   01/01/2000 03:55:00      0.129     0.010    0.0009
   01/01/2000 04:00:00      0.131     0.010    0.0009
   01/01/2000 04:05:00      0.131     0.010    0.0009
   01/01/2000 04:10:00      0.131     0.010    0.0009
   01/01/2000 04:15:00      0.133     0.011    0.0009
   01/01/2000 04:20:00      0.133     0.011    0.0009
   01/01/2000 04:25:00      0.135     0.011    0.0009
   01/01/2000 04:30:00      0.135     0.011    0.0010
   01/01/2000 04:35:00      0.135     0.011    0.0010
   01/01/2000 04:40:00      0.137     0.011    0.0010
   01/01/2000 04:45:00      0.137     0.011    0.0010
   01/01/2000 04:50:00      0.139     0.011    0.0010
   01/01/2000 04:55:00      0.139     0.011    0.0010
   01/01/2000 05:00:00      0.141     0.011    0.0010
   01/01/2000 05:05:00      0.141     0.011    0.0010
   01/01/2000 05:10:00      0.143     0.011    0.0010
   01/01/2000 05:15:00      0.145     0.012    0.0010
   01/01/2000 05:20:00      0.147     0.012    0.0010
   01/01/2000 05:25:00      0.149     0.012    0.0010
   01/01/2000 05:30:00      0.151     0.012    0.0010
   01/01/2000 05:35:00      0.153     0.012    0.0011
   01/01/2000 05:40:00      0.153     0.012    0.0011
   01/01/2000 05:45:00      0.155     0.012    0.0011
   01/01/2000 05:50:00      0.157     0.012    0.0011
   01/01/2000 05:55:00      0.159     0.013    0.0011
   01/01/2000 06:00:00      0.161     0.013    0.0011
   01/01/2000 06:05:00      0.163     0.013    0.0011
   01/01/2000 06:10:00      0.163     0.013    0.0011
   01/01/2000 06:15:00      0.165     0.013    0.0012
   01/01/2000 06:20:00      0.167     0.013    0.0012
   01/01/2000 06:25:00      0.169     0.013    0.0012
   01/01/2000 06:30:00      0.171     0.014    0.0012
   01/01/2000 06:35:00      0.173     0.014    0.0012
   01/01/2000 06:40:00      0.173     0.014    0.0012
   01/01/2000 06:45:00      0.175     0.014    0.0012
   01/01/2000 06:50:00      0.177     0.014    0.0012
   01/01/2000 06:55:00      0.179     0.014    0.0013
   01/01/2000 07:00:00      0.181     0.014    0.0013
   01/01/2000 07:05:00      0.183     0.014    0.0013
   01/01/2000 07:10:00      0.183     0.015    0.0013
   01/01/2000 07:15:00      0.185     0.015    0.0013
   01/01/2000 07:20:00      0.187     0.015    0.0013
   01/01/2000 07:25:00      0.189     0.015    0.0013
   01/01/2000 07:30:00      0.191     0.015    0.0013
   01/01/2000 07:35:00      0.193     0.015    0.0014
   01/01/2000 07:40:00      0.193     0.015    0.0014
   01/01/2000 07:45:00      0.195     0.016    0.0014
   01/01/2000 07:50:00      0.197     0.016    0.0014
   01/01/2000 07:55:00      0.199     0.016    0.0014
   01/01/2000 08:00:00      0.201     0.016    0.0014
   01/01/2000 08:05:00      0.203     0.016    0.0014
   01/01/2000 08:10:00      0.203     0.016    0.0014
   01/01/2000 08:15:00      0.205     0.016    0.0014
   01/01/2000 08:20:00      0.207     0.016    0.0015
   01/01/2000 08:25:00      0.209     0.017    0.0015
   01/01/2000 08:30:00      0.211     0.017    0.0015
   01/01/2000 08:35:00      0.213     0.017    0.0015
   01/01/2000 08:40:00      0.213     0.017    0.0015
   01/01/2000 08:45:00      0.215     0.017    0.0015
   01/01/2000 08:50:00      0.217     0.017    0.0015
   01/01/2000 08:55:00      0.219     0.017    0.0015
   01/01/2000 09:00:00      0.225     0.018    0.0016
   01/01/2000 09:05:00      0.235     0.018    0.0016
   01/01/2000 09:10:00      0.235     0.019    0.0016
   01/01/2000 09:15:00      0.245     0.019    0.0017
   01/01/2000 09:20:00      0.255     0.020    0.0017
   01/01/2000 09:25:00      0.265     0.021    0.0018
   01/01/2000 09:30:00      0.275     0.022    0.0018
   01/01/2000 09:35:00      0.285     0.022    0.0019
   01/01/2000 09:40:00      0.285     0.023    0.0020
   01/01/2000 09:45:00      0.295     0.023    0.0020
   01/01/2000 09:50:00      0.305     0.024    0.0021
   01/01/2000 09:55:00      0.315     0.025    0.0021
   01/01/2000 10:00:00      0.320     0.025    0.0022
   01/01/2000 10:05:00      0.320     0.025    0.0022
   01/01/2000 10:10:00      0.320     0.025    0.0023
   01/01/2000 10:15:00      0.320     0.025    0.0023
   01/01/2000 10:20:00      0.320     0.025    0.0023
   01/01/2000 10:25:00      0.320     0.025    0.0023
   01/01/2000 10:30:00      0.328     0.026    0.0023
   01/01/2000 10:35:00      0.344     0.026    0.0023
   01/01/2000 10:40:00      0.344     0.027    0.0024
   01/01/2000 10:45:00      0.360     0.029    0.0025
   01/01/2000 10:50:00      0.376     0.030    0.0026
   01/01/2000 10:55:00      0.392     0.030    0.0026
   01/01/2000 11:00:00      0.412     0.030    0.0027
   01/01/2000 11:05:00      0.436     0.030    0.0029
   01/01/2000 11:10:00      0.436     0.030    0.0030
   01/01/2000 11:15:00      0.460     0.029    0.0040
   01/01/2000 11:20:00      0.484     0.029    0.0046
   01/01/2000 11:25:00      0.508     0.029    0.0049
   01/01/2000 11:30:00      0.540     0.029    0.0051
   01/01/2000 11:35:00      0.580     0.029    0.0054
   01/01/2000 11:40:00      0.580     0.029    0.0057
   01/01/2000 11:45:00      0.620     0.029    0.0061
   01/01/2000 11:50:00      0.660     0.029    0.0064
   01/01/2000 11:55:00      0.700     0.029    0.0068
   01/01/2000 12:00:00      0.768     0.029    0.0073
   01/01/2000 12:05:00      0.864     0.029    0.0078
   01/01/2000 12:10:00      0.864     0.029    0.0086
   01/01/2000 12:15:00      0.960     0.029    0.0095
   01/01/2000 12:20:00      1.056     0.029    0.0104
   01/01/2000 12:25:00      1.152     0.029    0.0113
   01/01/2000 12:30:00      2.384     0.029    0.0139
   01/01/2000 12:35:00      4.752     0.029    0.0231
   01/01/2000 12:40:00      4.752     0.029    0.0444
   01/01/2000 12:45:00      7.643     0.030    0.0708
   01/01/2000 12:50:00     13.707     0.032    0.1155
   01/01/2000 12:55:00      9.514     0.033    0.1352
   01/01/2000 13:00:00      1.896     0.032    0.0942
   01/01/2000 13:05:00      1.668     0.032    0.0296
   01/01/2000 13:10:00      1.668     0.030    0.0220
   01/01/2000 13:15:00      1.440     0.029    0.0180
   01/01/2000 13:20:00      1.212     0.028    0.0154
   01/01/2000 13:25:00      0.984     0.028    0.0132
   01/01/2000 13:30:00      0.844     0.027    0.0113
   01/01/2000 13:35:00      0.792     0.027    0.0098
   01/01/2000 13:40:00      0.792     0.027    0.0091
   01/01/2000 13:45:00      0.740     0.027    0.0085
   01/01/2000 13:50:00      0.688     0.027    0.0080
   01/01/2000 13:55:00      0.636     0.027    0.0075
   01/01/2000 14:00:00      0.596     0.026    0.0070
   01/01/2000 14:05:00      0.568     0.026    0.0066
   01/01/2000 14:10:00      0.568     0.026    0.0063
   01/01/2000 14:15:00      0.540     0.026    0.0060
   01/01/2000 14:20:00      0.512     0.026    0.0058
   01/01/2000 14:25:00      0.484     0.026    0.0055
   01/01/2000 14:30:00      0.460     0.026    0.0053
   01/01/2000 14:35:00      0.440     0.026    0.0050
   01/01/2000 14:40:00      0.440     0.026    0.0048
   01/01/2000 14:45:00      0.420     0.026    0.0046
   01/01/2000 14:50:00      0.400     0.026    0.0044
   01/01/2000 14:55:00      0.380     0.025    0.0043
   01/01/2000 15:00:00      0.367     0.025    0.0041
   01/01/2000 15:05:00      0.359     0.025    0.0039
   01/01/2000 15:10:00      0.359     0.025    0.0038
   01/01/2000 15:15:00      0.353     0.025    0.0038
   01/01/2000 15:20:00      0.345     0.025    0.0037
   01/01/2000 15:25:00      0.339     0.025    0.0036
   01/01/2000 15:30:00      0.331     0.025    0.0036
   01/01/2000 15:35:00      0.325     0.025    0.0035
   01/01/2000 15:40:00      0.325     0.025    0.0034
   01/01/2000 15:45:00      0.317     0.025    0.0034
   01/01/2000 15:50:00      0.311     0.025    0.0033
   01/01/2000 15:55:00      0.303     0.025    0.0032
   01/01/2000 16:00:00      0.297     0.025    0.0032
   01/01/2000 16:05:00      0.289     0.025    0.0031
   01/01/2000 16:10:00      0.289     0.024    0.0030
   01/01/2000 16:15:00      0.283     0.024    0.0030
   01/01/2000 16:20:00      0.275     0.024    0.0029
   01/01/2000 16:25:00      0.269     0.024    0.0029
   01/01/2000 16:30:00      0.261     0.024    0.0028
   01/01/2000 16:35:00      0.255     0.024    0.0027
   01/01/2000 16:40:00      0.255     0.024    0.0027
   01/01/2000 16:45:00      0.247     0.024    0.0026
   01/01/2000 16:50:00      0.241     0.024    0.0026
   01/01/2000 16:55:00      0.233     0.024    0.0025
   01/01/2000 17:00:00      0.229     0.024    0.0024
   01/01/2000 17:05:00      0.226     0.024    0.0024
   01/01/2000 17:10:00      0.226     0.024    0.0024
   01/01/2000 17:15:00      0.224     0.024    0.0023
   01/01/2000 17:20:00      0.221     0.019    0.0023
   01/01/2000 17:25:00      0.219     0.017    0.0023
   01/01/2000 17:30:00      0.216     0.017    0.0023
   01/01/2000 17:35:00      0.214     0.017    0.0022
   01/01/2000 17:40:00      0.214     0.017    0.0022
   01/01/2000 17:45:00      0.211     0.017    0.0022
   01/01/2000 17:50:00      0.209     0.017    0.0022
   01/01/2000 17:55:00      0.206     0.016    0.0022
   01/01/2000 18:00:00      0.204     0.016    0.0021
   01/01/2000 18:05:00      0.201     0.016    0.0021
   01/01/2000 18:10:00      0.201     0.016    0.0021
   01/01/2000 18:15:00      0.199     0.016    0.0021
   01/01/2000 18:20:00      0.196     0.016    0.0020
   01/01/2000 18:25:00      0.194     0.015    0.0020
   01/01/2000 18:30:00      0.191     0.015    0.0020
   01/01/2000 18:35:00      0.189     0.015    0.0020
   01/01/2000 18:40:00      0.189     0.015    0.0020
   01/01/2000 18:45:00      0.186     0.015    0.0019
   01/01/2000 18:50:00      0.184     0.015    0.0019
   01/01/2000 18:55:00      0.181     0.014    0.0019
   01/01/2000 19:00:00      0.179     0.014    0.0019
   01/01/2000 19:05:00      0.176     0.014    0.0019
   01/01/2000 19:10:00      0.176     0.014    0.0018
   01/01/2000 19:15:00      0.174     0.014    0.0018
   01/01/2000 19:20:00      0.171     0.014    0.0018
   01/01/2000 19:25:00      0.169     0.013    0.0018
   01/01/2000 19:30:00      0.166     0.013    0.0017
   01/01/2000 19:35:00      0.164     0.013    0.0017
   01/01/2000 19:40:00      0.164     0.013    0.0017
   01/01/2000 19:45:00      0.161     0.013    0.0017
   01/01/2000 19:50:00      0.159     0.013    0.0017
   01/01/2000 19:55:00      0.156     0.012    0.0016
   01/01/2000 20:00:00      0.154     0.012    0.0016
   01/01/2000 20:05:00      0.154     0.012    0.0016
   01/01/2000 20:10:00      0.151     0.012    0.0016
   01/01/2000 20:15:00      0.149     0.012    0.0016
   01/01/2000 20:20:00      0.146     0.012    0.0015
   01/01/2000 20:25:00      0.144     0.011    0.0015
   01/01/2000 20:30:00      0.141     0.011    0.0015
   01/01/2000 20:35:00      0.141     0.011    0.0015
   01/01/2000 20:40:00      0.139     0.011    0.0015
   01/01/2000 20:45:00      0.136     0.011    0.0014
   01/01/2000 20:50:00      0.134     0.011    0.0014
   01/01/2000 20:55:00      0.131     0.010    0.0014
   01/01/2000 21:00:00      0.130     0.010    0.0014
   01/01/2000 21:05:00      0.130     0.010    0.0014
   01/01/2000 21:10:00      0.129     0.010    0.0013
   01/01/2000 21:15:00      0.129     0.010    0.0013
   01/01/2000 21:20:00      0.128     0.010    0.0013
   01/01/2000 21:25:00      0.128     0.010    0.0013
   01/01/2000 21:30:00      0.127     0.010    0.0013
   01/01/2000 21:35:00      0.127     0.010    0.0013
   01/01/2000 21:40:00      0.127     0.010    0.0013
   01/01/2000 21:45:00      0.126     0.010    0.0013
   01/01/2000 21:50:00      0.126     0.010    0.0013
   01/01/2000 21:55:00      0.125     0.010    0.0013
   01/01/2000 22:00:00      0.125     0.010    0.0013
   01/01/2000 22:05:00      0.125     0.010    0.0013
   01/01/2000 22:10:00      0.124     0.010    0.0013
   01/01/2000 22:15:00      0.124     0.010    0.0013
   01/01/2000 22:20:00      0.123     0.010    0.0013
   01/01/2000 22:25:00      0.123     0.010    0.0013
   01/01/2000 22:30:00      0.122     0.010    0.0013
   01/01/2000 22:35:00      0.122     0.010    0.0013
   01/01/2000 22:40:00      0.122     0.010    0.0013
   01/01/2000 22:45:00      0.121     0.010    0.0012
   01/01/2000 22:50:00      0.121     0.010    0.0012
   01/01/2000 22:55:00      0.120     0.010    0.0012
   01/01/2000 23:00:00      0.120     0.010    0.0012
   01/01/2000 23:05:00      0.120     0.010    0.0012
   01/01/2000 23:10:00      0.119     0.009    0.0012
   01/01/2000 23:15:00      0.119     0.009    0.0012
   01/01/2000 23:20:00      0.118     0.009    0.0012
   01/01/2000 23:25:00      0.118     0.009    0.0012
   01/01/2000 23:30:00      0.117     0.009    0.0012
   01/01/2000 23:35:00      0.117     0.009    0.0012
   01/01/2000 23:40:00      0.117     0.009    0.0012
   01/01/2000 23:45:00      0.116     0.009    0.0012
   01/01/2000 23:50:00      0.116     0.009    0.0012
   01/01/2000 23:55:00      0.115     0.009    0.0012
   01/02/2000 00:00:00      0.115     0.009    0.0012
  
  
  ************
  Node Results
  ************
  
  <<< Node J3 >>>
  ----------------------------------------------------------------
                           Inflow  Flooding     Depth      Head
  Date        Time            CMS       CMS    meters    meters
  ----------------------------------------------------------------
   01/01/2000 00:05:00      0.000     0.000     0.000    93.000
   01/01/2000 00:10:00      0.000     0.000     0.000    93.000
   01/01/2000 00:15:00      0.000     0.000     0.000    93.000
   01/01/2000 00:20:00      0.000     0.000     0.000    93.000
   01/01/2000 00:25:00      0.000     0.000     0.000    93.000
   01/01/2000 00:30:00      0.000     0.000     0.000    93.000
   01/01/2000 00:35:00      0.000     0.000     0.000    93.000
   01/01/2000 00:40:00      0.000     0.000     0.000    93.000
   01/01/2000 00:45:00      0.000     0.000     0.000    93.000
   01/01/2000 00:50:00      0.000     0.000     0.000    93.000
   01/01/2000 00:55:00      0.000     0.000     0.000    93.000
   01/01/2000 01:00:00      0.000     0.000     0.000    93.000
   01/01/2000 01:05:00      0.000     0.000     0.002    93.002
   01/01/2000 01:10:00      0.000     0.000     0.004    93.004
   01/01/2000 01:15:00      0.000     0.000     0.005    93.005
   01/01/2000 01:20:00      0.000     0.000     0.005    93.005
   01/01/2000 01:25:00      0.000     0.000     0.006    93.006
   01/01/2000 01:30:00      0.000     0.000     0.007    93.007
   01/01/2000 01:35:00      0.000     0.000     0.009    93.009
   01/01/2000 01:40:00      0.000     0.000     0.010    93.010
   01/01/2000 01:45:00      0.001     0.000     0.011    93.011
   01/01/2000 01:50:00      0.001     0.000     0.012    93.012
   01/01/2000 01:55:00      0.001     0.000     0.012    93.012
   01/01/2000 02:00:00      0.001     0.000     0.013    93.013
   01/01/2000 02:05:00      0.001     0.000     0.013    93.013
   01/01/2000 02:10:00      0.001     0.000     0.013    93.013
   01/01/2000 02:15:00      0.001     0.000     0.013    93.013
   01/01/2000 02:20:00      0.001     0.000     0.013    93.013
   01/01/2000 02:25:00      0.001     0.000     0.013    93.013
   01/01/2000 02:30:00      0.001     0.000     0.013    93.013
   01/01/2000 02:35:00      0.001     0.000     0.014    93.014
   01/01/2000 02:40:00      0.001     0.000     0.014    93.014
   01/01/2000 02:45:00      0.001     0.000     0.014    93.014
   01/01/2000 02:50:00      0.001     0.000     0.014    93.014
   01/01/2000 02:55:00      0.001     0.000     0.014    93.014
   01/01/2000 03:00:00      0.001     0.000     0.014    93.014
   01/01/2000 03:05:00      0.001     0.000     0.014    93.014
   01/01/2000 03:10:00      0.001     0.000     0.014    93.014
   01/01/2000 03:15:00      0.001     0.000     0.014    93.014
   01/01/2000 03:20:00      0.001     0.000     0.014    93.014
   01/01/2000 03:25:00      0.001     0.000     0.014    93.014
   01/01/2000 03:30:00      0.001     0.000     0.014    93.014
   01/01/2000 03:35:00      0.001     0.000     0.014    93.014
   01/01/2000 03:40:00      0.001     0.000     0.014    93.014
   01/01/2000 03:45:00      0.001     0.000     0.014    93.014
   01/01/2000 03:50:00      0.001     0.000     0.014    93.014
   01/01/2000 03:55:00      0.001     0.000     0.014    93.014
   01/01/2000 04:00:00      0.001     0.000     0.014    93.014
   01/01/2000 04:05:00      0.001     0.000     0.014    93.014
   01/01/2000 04:10:00      0.001     0.000     0.014    93.014
   01/01/2000 04:15:00      0.001     0.000     0.014    93.014
   01/01/2000 04:20:00      0.001     0.000     0.014    93.014
   01/01/2000 04:25:00      0.001     0.000     0.014    93.014
   01/01/2000 04:30:00      0.001     0.000     0.015    93.015
   01/01/2000 04:35:00      0.001     0.000     0.015    93.015
   01/01/2000 04:40:00      0.001     0.000     0.015    93.015
   01/01/2000 04:45:00      0.001     0.000     0.015    93.015
   01/01/2000 04:50:00      0.001     0.000     0.015    93.015
   01/01/2000 04:55:00      0.001     0.000     0.015    93.015
   01/01/2000 05:00:00      0.001     0.000     0.015    93.015
   01/01/2000 05:05:00      0.001     0.000     0.015    93.015
   01/01/2000 05:10:00      0.001     0.000     0.015    93.015
   01/01/2000 05:15:00      0.001     0.000     0.015    93.015
   01/01/2000 05:20:00      0.001     0.000     0.015    93.015
   01/01/2000 05:25:00      0.001     0.000     0.015    93.015
   01/01/2000 05:30:00      0.001     0.000     0.015    93.015
   01/01/2000 05:35:00      0.001     0.000     0.015    93.015
   01/01/2000 05:40:00      0.001     0.000     0.015    93.015
   01/01/2000 05:45:00      0.001     0.000     0.015    93.015
   01/01/2000 05:50:00      0.001     0.000     0.016    93.016
   01/01/2000 05:55:00      0.001     0.000     0.016    93.016
   01/01/2000 06:00:00      0.001     0.000     0.016    93.016
   01/01/2000 06:05:00      0.001     0.000     0.016    93.016
   01/01/2000 06:10:00      0.001     0.000     0.016    93.016
   01/01/2000 06:15:00      0.001     0.000     0.016    93.016
   01/01/2000 06:20:00      0.001     0.000     0.016    93.016
   01/01/2000 06:25:00      0.001     0.000     0.016    93.016
   01/01/2000 06:30:00      0.001     0.000     0.016    93.016
   01/01/2000 06:35:00      0.001     0.000     0.016    93.016
   01/01/2000 06:40:00      0.001     0.000     0.016    93.016
   01/01/2000 06:45:00      0.001     0.000     0.016    93.016
   01/01/2000 06:50:00      0.001     0.000     0.016    93.016
   01/01/2000 06:55:00      0.001     0.000     0.017    93.017
   01/01/2000 07:00:00      0.001     0.000     0.017    93.017
   01/01/2000 07:05:00      0.001     0.000     0.017    93.017
   01/01/2000 07:10:00      0.001     0.000     0.017    93.017
   01/01/2000 07:15:00      0.001     0.000     0.017    93.017
   01/01/2000 07:20:00      0.001     0.000     0.017    93.017
   01/01/2000 07:25:00      0.001     0.000     0.017    93.017
   01/01/2000 07:30:00      0.001     0.000     0.017    93.017
   01/01/2000 07:35:00      0.001     0.000     0.017    93.017
   01/01/2000 07:40:00      0.001     0.000     0.017    93.017
   01/01/2000 07:45:00      0.001     0.000     0.017    93.017
   01/01/2000 07:50:00      0.001     0.000     0.017    93.017
   01/01/2000 07:55:00      0.001     0.000     0.017    93.017
   01/01/2000 08:00:00      0.001     0.000     0.017    93.017
   01/01/2000 08:05:00      0.001     0.000     0.018    93.018
   01/01/2000 08:10:00      0.001     0.000     0.018    93.018
   01/01/2000 08:15:00      0.001     0.000     0.018    93.018
   01/01/2000 08:20:00      0.001     0.000     0.018    93.018
   01/01/2000 08:25:00      0.001     0.000     0.018    93.018
   01/01/2000 08:30:00      0.001     0.000     0.018    93.018
   01/01/2000 08:35:00      0.001     0.000     0.018    93.018
   01/01/2000 08:40:00      0.002     0.000     0.018    93.018
   01/01/2000 08:45:00      0.002     0.000     0.018    93.018
   01/01/2000 08:50:00      0.002     0.000     0.018    93.018
   01/01/2000 08:55:00      0.002     0.000     0.018    93.018
   01/01/2000 09:00:00      0.002     0.000     0.018    93.018
   01/01/2000 09:05:00      0.002     0.000     0.018    93.018
   01/01/2000 09:10:00      0.002     0.000     0.019    93.019
   01/01/2000 09:15:00      0.002     0.000     0.019    93.019
   01/01/2000 09:20:00      0.002     0.000     0.019    93.019
   01/01/2000 09:25:00      0.002     0.000     0.019    93.019
   01/01/2000 09:30:00      0.002     0.000     0.020    93.020
   01/01/2000 09:35:00      0.002     0.000     0.020    93.020
   01/01/2000 09:40:00      0.002     0.000     0.020    93.020
   01/01/2000 09:45:00      0.002     0.000     0.021    93.021
   01/01/2000 09:50:00      0.002     0.000     0.021    93.021
   01/01/2000 09:55:00      0.002     0.000     0.021    93.021
   01/01/2000 10:00:00      0.002     0.000     0.021    93.021
   01/01/2000 10:05:00      0.002     0.000     0.022    93.022
   01/01/2000 10:10:00      0.002     0.000     0.022    93.022
   01/01/2000 10:15:00      0.002     0.000     0.022    93.022
   01/01/2000 10:20:00      0.002     0.000     0.022    93.022
   01/01/2000 10:25:00      0.002     0.000     0.022    93.022
   01/01/2000 10:30:00      0.002     0.000     0.022    93.022
   01/01/2000 10:35:00      0.002     0.000     0.022    93.022
   01/01/2000 10:40:00      0.002     0.000     0.022    93.022
   01/01/2000 10:45:00      0.002     0.000     0.023    93.023
   01/01/2000 10:50:00      0.003     0.000     0.023    93.023
   01/01/2000 10:55:00      0.003     0.000     0.023    93.023
   01/01/2000 11:00:00      0.003     0.000     0.024    93.024
   01/01/2000 11:05:00      0.003     0.000     0.024    93.024
   01/01/2000 11:10:00      0.003     0.000     0.025    93.025
   01/01/2000 11:15:00      0.004     0.000     0.027    93.027
   01/01/2000 11:20:00      0.005     0.000     0.030    93.030
   01/01/2000 11:25:00      0.005     0.000     0.031    93.031
   01/01/2000 11:30:00      0.005     0.000     0.032    93.032
   01/01/2000 11:35:00      0.005     0.000     0.032    93.032
   01/01/2000 11:40:00      0.006     0.000     0.033    93.033
   01/01/2000 11:45:00      0.006     0.000     0.034    93.034
   01/01/2000 11:50:00      0.006     0.000     0.035    93.035
   01/01/2000 11:55:00      0.007     0.000     0.036    93.036
   01/01/2000 12:00:00      0.007     0.000     0.037    93.037
   01/01/2000 12:05:00      0.008     0.000     0.038    93.038
   01/01/2000 12:10:00      0.008     0.000     0.040    93.040
   01/01/2000 12:15:00      0.009     0.000     0.042    93.042
   01/01/2000 12:20:00      0.010     0.000     0.044    93.044
   01/01/2000 12:25:00      0.011     0.000     0.045    93.045
   01/01/2000 12:30:00      0.012     0.000     0.047    93.047
   01/01/2000 12:35:00      0.021     0.000     0.062    93.062
   01/01/2000 12:40:00      0.040     0.000     0.083    93.083
   01/01/2000 12:45:00      0.065     0.000     0.104    93.104
   01/01/2000 12:50:00      0.104     0.000     0.129    93.129
   01/01/2000 12:55:00      0.142     0.000     0.149    93.149
   01/01/2000 13:00:00      0.107     0.000     0.131    93.131
   01/01/2000 13:05:00      0.043     0.000     0.085    93.085
   01/01/2000 13:10:00      0.024     0.000     0.064    93.064
   01/01/2000 13:15:00      0.019     0.000     0.058    93.058
   01/01/2000 13:20:00      0.016     0.000     0.054    93.054
   01/01/2000 13:25:00      0.014     0.000     0.050    93.050
   01/01/2000 13:30:00      0.012     0.000     0.046    93.046
   01/01/2000 13:35:00      0.010     0.000     0.044    93.044
   01/01/2000 13:40:00      0.009     0.000     0.042    93.042
   01/01/2000 13:45:00      0.009     0.000     0.040    93.040
   01/01/2000 13:50:00      0.008     0.000     0.039    93.039
   01/01/2000 13:55:00      0.008     0.000     0.038    93.038
   01/01/2000 14:00:00      0.007     0.000     0.037    93.037
   01/01/2000 14:05:00      0.007     0.000     0.036    93.036
   01/01/2000 14:10:00      0.006     0.000     0.035    93.035
   01/01/2000 14:15:00      0.006     0.000     0.034    93.034
   01/01/2000 14:20:00      0.006     0.000     0.034    93.034
   01/01/2000 14:25:00      0.006     0.000     0.033    93.033
   01/01/2000 14:30:00      0.005     0.000     0.032    93.032
   01/01/2000 14:35:00      0.005     0.000     0.032    93.032
   01/01/2000 14:40:00      0.005     0.000     0.031    93.031
   01/01/2000 14:45:00      0.005     0.000     0.030    93.030
   01/01/2000 14:50:00      0.004     0.000     0.030    93.030
   01/01/2000 14:55:00      0.004     0.000     0.029    93.029
   01/01/2000 15:00:00      0.004     0.000     0.029    93.029
   01/01/2000 15:05:00      0.004     0.000     0.028    93.028
   01/01/2000 15:10:00      0.004     0.000     0.028    93.028
   01/01/2000 15:15:00      0.004     0.000     0.028    93.028
   01/01/2000 15:20:00      0.004     0.000     0.027    93.027
   01/01/2000 15:25:00      0.004     0.000     0.027    93.027
   01/01/2000 15:30:00      0.004     0.000     0.027    93.027
   01/01/2000 15:35:00      0.003     0.000     0.027    93.027
   01/01/2000 15:40:00      0.003     0.000     0.026    93.026
   01/01/2000 15:45:00      0.003     0.000     0.026    93.026
   01/01/2000 15:50:00      0.003     0.000     0.026    93.026
   01/01/2000 15:55:00      0.003     0.000     0.026    93.026
   01/01/2000 16:00:00      0.003     0.000     0.025    93.025
   01/01/2000 16:05:00      0.003     0.000     0.025    93.025
   01/01/2000 16:10:00      0.003     0.000     0.025    93.025
   01/01/2000 16:15:00      0.003     0.000     0.025    93.025
   01/01/2000 16:20:00      0.003     0.000     0.024    93.024
   01/01/2000 16:25:00      0.003     0.000     0.024    93.024
   01/01/2000 16:30:00      0.003     0.000     0.024    93.024
   01/01/2000 16:35:00      0.003     0.000     0.024    93.024
   01/01/2000 16:40:00      0.003     0.000     0.024    93.024
   01/01/2000 16:45:00      0.003     0.000     0.023    93.023
   01/01/2000 16:50:00      0.003     0.000     0.023    93.023
   01/01/2000 16:55:00      0.003     0.000     0.023    93.023
   01/01/2000 17:00:00      0.002     0.000     0.023    93.023
   01/01/2000 17:05:00      0.002     0.000     0.022    93.022
   01/01/2000 17:10:00      0.002     0.000     0.022    93.022
   01/01/2000 17:15:00      0.002     0.000     0.022    93.022
   01/01/2000 17:20:00      0.002     0.000     0.022    93.022
   01/01/2000 17:25:00      0.002     0.000     0.022    93.022
   01/01/2000 17:30:00      0.002     0.000     0.022    93.022
   01/01/2000 17:35:00      0.002     0.000     0.022    93.022
   01/01/2000 17:40:00      0.002     0.000     0.022    93.022
   01/01/2000 17:45:00      0.002     0.000     0.021    93.021
   01/01/2000 17:50:00      0.002     0.000     0.021    93.021
   01/01/2000 17:55:00      0.002     0.000     0.021    93.021
   01/01/2000 18:00:00      0.002     0.000     0.021    93.021
   01/01/2000 18:05:00      0.002     0.000     0.021    93.021
   01/01/2000 18:10:00      0.002     0.000     0.021    93.021
   01/01/2000 18:15:00      0.002     0.000     0.021    93.021
   01/01/2000 18:20:00      0.002     0.000     0.021    93.021
   01/01/2000 18:25:00      0.002     0.000     0.021    93.021
   01/01/2000 18:30:00      0.002     0.000     0.021    93.021
   01/01/2000 18:35:00      0.002     0.000     0.020    93.020
   01/01/2000 18:40:00      0.002     0.000     0.020    93.020
   01/01/2000 18:45:00      0.002     0.000     0.020    93.020
   01/01/2000 18:50:00      0.002     0.000     0.020    93.020
   01/01/2000 18:55:00      0.002     0.000     0.020    93.020
   01/01/2000 19:00:00      0.002     0.000     0.020    93.020
   01/01/2000 19:05:00      0.002     0.000     0.020    93.020
   01/01/2000 19:10:00      0.002     0.000     0.020    93.020
   01/01/2000 19:15:00      0.002     0.000     0.020    93.020
   01/01/2000 19:20:00      0.002     0.000     0.020    93.020
   01/01/2000 19:25:00      0.002     0.000     0.019    93.019
   01/01/2000 19:30:00      0.002     0.000     0.019    93.019
   01/01/2000 19:35:00      0.002     0.000     0.019    93.019
   01/01/2000 19:40:00      0.002     0.000     0.019    93.019
   01/01/2000 19:45:00      0.002     0.000     0.019    93.019
   01/01/2000 19:50:00      0.002     0.000     0.019    93.019
   01/01/2000 19:55:00      0.002     0.000     0.019    93.019
   01/01/2000 20:00:00      0.002     0.000     0.019    93.019
   01/01/2000 20:05:00      0.002     0.000     0.019    93.019
   01/01/2000 20:10:00      0.002     0.000     0.018    93.018
   01/01/2000 20:15:00      0.002     0.000     0.018    93.018
   01/01/2000 20:20:00      0.002     0.000     0.018    93.018
   01/01/2000 20:25:00      0.002     0.000     0.018    93.018
   01/01/2000 20:30:00      0.002     0.000     0.018    93.018
   01/01/2000 20:35:00      0.001     0.000     0.018    93.018
   01/01/2000 20:40:00      0.001     0.000     0.018    93.018
   01/01/2000 20:45:00      0.001     0.000     0.018    93.018
   01/01/2000 20:50:00      0.001     0.000     0.017    93.017
   01/01/2000 20:55:00      0.001     0.000     0.017    93.017
   01/01/2000 21:00:00      0.001     0.000     0.017    93.017
   01/01/2000 21:05:00      0.001     0.000     0.017    93.017
   01/01/2000 21:10:00      0.001     0.000     0.017    93.017
   01/01/2000 21:15:00      0.001     0.000     0.017    93.017
   01/01/2000 21:20:00      0.001     0.000     0.017    93.017
   01/01/2000 21:25:00      0.001     0.000     0.017    93.017
   01/01/2000 21:30:00      0.001     0.000     0.017    93.017
   01/01/2000 21:35:00      0.001     0.000     0.017    93.017
   01/01/2000 21:40:00      0.001     0.000     0.017    93.017
   01/01/2000 21:45:00      0.001     0.000     0.017    93.017
   01/01/2000 21:50:00      0.001     0.000     0.017    93.017
   01/01/2000 21:55:00      0.001     0.000     0.017    93.017
   01/01/2000 22:00:00      0.001     0.000     0.017    93.017
   01/01/2000 22:05:00      0.001     0.000     0.017    93.017
   01/01/2000 22:10:00      0.001     0.000     0.017    93.017
   01/01/2000 22:15:00      0.001     0.000     0.017    93.017
   01/01/2000 22:20:00      0.001     0.000     0.017    93.017
   01/01/2000 22:25:00      0.001     0.000     0.017    93.017
   01/01/2000 22:30:00      0.001     0.000     0.017    93.017
   01/01/2000 22:35:00      0.001     0.000     0.017    93.017
   01/01/2000 22:40:00      0.001     0.000     0.017    93.017
   01/01/2000 22:45:00      0.001     0.000     0.016    93.016
   01/01/2000 22:50:00      0.001     0.000     0.016    93.016
   01/01/2000 22:55:00      0.001     0.000     0.016    93.016
   01/01/2000 23:00:00      0.001     0.000     0.016    93.016
   01/01/2000 23:05:00      0.001     0.000     0.016    93.016
   01/01/2000 23:10:00      0.001     0.000     0.016    93.016
   01/01/2000 23:15:00      0.001     0.000     0.016    93.016
   01/01/2000 23:20:00      0.001     0.000     0.016    93.016
   01/01/2000 23:25:00      0.001     0.000     0.016    93.016
   01/01/2000 23:30:00      0.001     0.000     0.016    93.016
   01/01/2000 23:35:00      0.001     0.000     0.016    93.016
   01/01/2000 23:40:00      0.001     0.000     0.016    93.016
   01/01/2000 23:45:00      0.001     0.000     0.016    93.016
   01/01/2000 23:50:00      0.001     0.000     0.016    93.016
   01/01/2000 23:55:00      0.001     0.000     0.016    93.016
   01/02/2000 00:00:00      0.001     0.000     0.016    93.016
  
  
  <<< Node J1 >>>
  ----------------------------------------------------------------
                           Inflow  Flooding     Depth      Head
  Date        Time            CMS       CMS    meters    meters
  ----------------------------------------------------------------
   01/01/2000 00:05:00      0.000     0.000     0.000    96.000
   01/01/2000 00:10:00      0.000     0.000     0.000    96.000
   01/01/2000 00:15:00      0.000     0.000     0.000    96.000
   01/01/2000 00:20:00      0.000     0.000     0.000    96.000
   01/01/2000 00:25:00      0.000     0.000     0.000    96.000
   01/01/2000 00:30:00      0.000     0.000     0.000    96.000
   01/01/2000 00:35:00      0.000     0.000     0.000    96.000
   01/01/2000 00:40:00      0.000     0.000     0.000    96.000
   01/01/2000 00:45:00      0.000     0.000     0.000    96.000
   01/01/2000 00:50:00      0.000     0.000     0.000    96.000
   01/01/2000 00:55:00      0.000     0.000     0.000    96.000
   01/01/2000 01:00:00      0.000     0.000     0.000    96.000
   01/01/2000 01:05:00      0.000     0.000     0.001    96.001
   01/01/2000 01:10:00      0.000     0.000     0.001    96.001
   01/01/2000 01:15:00      0.000     0.000     0.002    96.002
   01/01/2000 01:20:00      0.000     0.000     0.002    96.002
   01/01/2000 01:25:00      0.000     0.000     0.003    96.003
   01/01/2000 01:30:00      0.000     0.000     0.003    96.003
   01/01/2000 01:35:00      0.000     0.000     0.004    96.004
   01/01/2000 01:40:00      0.000     0.000     0.004    96.004
   01/01/2000 01:45:00      0.000     0.000     0.004    96.004
   01/01/2000 01:50:00      0.000     0.000     0.005    96.005
   01/01/2000 01:55:00      0.000     0.000     0.005    96.005
   01/01/2000 02:00:00      0.000     0.000     0.006    96.006
   01/01/2000 02:05:00      0.000     0.000     0.006    96.006
   01/01/2000 02:10:00      0.000     0.000     0.007    96.007
   01/01/2000 02:15:00      0.000     0.000     0.008    96.008
   01/01/2000 02:20:00      0.000     0.000     0.008    96.008
   01/01/2000 02:25:00      0.000     0.000     0.009    96.009
   01/01/2000 02:30:00      0.000     0.000     0.010    96.010
   01/01/2000 02:35:00      0.000     0.000     0.010    96.010
   01/01/2000 02:40:00      0.000     0.000     0.011    96.011
   01/01/2000 02:45:00      0.000     0.000     0.011    96.011
   01/01/2000 02:50:00      0.000     0.000     0.012    96.012
   01/01/2000 02:55:00      0.001     0.000     0.012    96.012
   01/01/2000 03:00:00      0.001     0.000     0.013    96.013
   01/01/2000 03:05:00      0.001     0.000     0.013    96.013
   01/01/2000 03:10:00      0.001     0.000     0.014    96.014
   01/01/2000 03:15:00      0.001     0.000     0.014    96.014
   01/01/2000 03:20:00      0.001     0.000     0.014    96.014
   01/01/2000 03:25:00      0.001     0.000     0.015    96.015
   01/01/2000 03:30:00      0.001     0.000     0.015    96.015
   01/01/2000 03:35:00      0.001     0.000     0.015    96.015
   01/01/2000 03:40:00      0.001     0.000     0.016    96.016
   01/01/2000 03:45:00      0.001     0.000     0.016    96.016
   01/01/2000 03:50:00      0.001     0.000     0.016    96.016
   01/01/2000 03:55:00      0.001     0.000     0.017    96.017
   01/01/2000 04:00:00      0.001     0.000     0.017    96.017
   01/01/2000 04:05:00      0.001     0.000     0.017    96.017
   01/01/2000 04:10:00      0.001     0.000     0.017    96.017
   01/01/2000 04:15:00      0.001     0.000     0.017    96.017
   01/01/2000 04:20:00      0.001     0.000     0.018    96.018
   01/01/2000 04:25:00      0.001     0.000     0.018    96.018
   01/01/2000 04:30:00      0.001     0.000     0.018    96.018
   01/01/2000 04:35:00      0.001     0.000     0.018    96.018
   01/01/2000 04:40:00      0.001     0.000     0.018    96.018
   01/01/2000 04:45:00      0.001     0.000     0.018    96.018
   01/01/2000 04:50:00      0.001     0.000     0.018    96.018
   01/01/2000 04:55:00      0.001     0.000     0.019    96.019
   01/01/2000 05:00:00      0.001     0.000     0.019    96.019
   01/01/2000 05:05:00      0.001     0.000     0.019    96.019
   01/01/2000 05:10:00      0.001     0.000     0.019    96.019
   01/01/2000 05:15:00      0.001     0.000     0.019    96.019
   01/01/2000 05:20:00      0.001     0.000     0.019    96.019
   01/01/2000 05:25:00      0.001     0.000     0.019    96.019
   01/01/2000 05:30:00      0.001     0.000     0.019    96.019
   01/01/2000 05:35:00      0.001     0.000     0.020    96.020
   01/01/2000 05:40:00      0.001     0.000     0.020    96.020
   01/01/2000 05:45:00      0.001     0.000     0.020    96.020
[...]
   01/01/2000 22:35:00      0.001     0.248     0.026     0.007
   01/01/2000 22:40:00      0.001     0.248     0.026     0.007
   01/01/2000 22:45:00      0.001     0.247     0.026     0.007
   01/01/2000 22:50:00      0.001     0.247     0.026     0.007
   01/01/2000 22:55:00      0.001     0.246     0.026     0.007
   01/01/2000 23:00:00      0.001     0.246     0.026     0.007
   01/01/2000 23:05:00      0.001     0.246     0.026     0.007
   01/01/2000 23:10:00      0.001     0.245     0.025     0.007
   01/01/2000 23:15:00      0.001     0.245     0.025     0.007
   01/01/2000 23:20:00      0.001     0.244     0.025     0.007
   01/01/2000 23:25:00      0.001     0.244     0.025     0.007
   01/01/2000 23:30:00      0.001     0.244     0.025     0.007
   01/01/2000 23:35:00      0.001     0.243     0.025     0.007
   01/01/2000 23:40:00      0.001     0.243     0.025     0.007
   01/01/2000 23:45:00      0.001     0.243     0.025     0.007
   01/01/2000 23:50:00      0.001     0.242     0.025     0.007
   01/01/2000 23:55:00      0.001     0.242     0.025     0.007
   01/02/2000 00:00:00      0.001     0.242     0.025     0.007
  
  
  <<< Link C1 >>>
  ----------------------------------------------------------------
                             Flow  Velocity     Depth  Capacity/
  Date        Time            CMS     m/sec    meters   Setting 
  ----------------------------------------------------------------
   01/01/2000 00:05:00      0.000     0.000     0.000     0.000
   01/01/2000 00:10:00      0.000     0.000     0.000     0.000
   01/01/2000 00:15:00      0.000     0.000     0.000     0.000
   01/01/2000 00:20:00      0.000     0.000     0.000     0.000
   01/01/2000 00:25:00      0.000     0.000     0.000     0.000
   01/01/2000 00:30:00      0.000     0.000     0.000     0.000
   01/01/2000 00:35:00      0.000     0.000     0.000     0.000
   01/01/2000 00:40:00      0.000     0.000     0.000     0.000
   01/01/2000 00:45:00      0.000     0.000     0.000     0.000
   01/01/2000 00:50:00      0.000     0.000     0.000     0.000
   01/01/2000 00:55:00      0.000     0.000     0.000     0.000
   01/01/2000 01:00:00      0.000     0.000     0.000     0.000
   01/01/2000 01:05:00      0.000     0.000     0.000     0.000
   01/01/2000 01:10:00      0.000     0.000     0.001     0.000
   01/01/2000 01:15:00      0.000     0.000     0.001     0.000
   01/01/2000 01:20:00      0.000     0.000     0.001     0.000
   01/01/2000 01:25:00      0.000     0.000     0.001     0.000
   01/01/2000 01:30:00      0.000     0.000     0.002     0.000
   01/01/2000 01:35:00      0.000     0.000     0.002     0.000
   01/01/2000 01:40:00      0.000     0.000     0.002     0.000
   01/01/2000 01:45:00      0.000     0.000     0.003     0.000
   01/01/2000 01:50:00      0.000     0.018     0.003     0.001
   01/01/2000 01:55:00      0.000     0.026     0.004     0.001
   01/01/2000 02:00:00      0.000     0.033     0.004     0.001
   01/01/2000 02:05:00      0.000     0.039     0.005     0.001
   01/01/2000 02:10:00      0.000     0.049     0.005     0.001
   01/01/2000 02:15:00      0.000     0.063     0.006     0.001
   01/01/2000 02:20:00      0.000     0.078     0.007     0.001
   01/01/2000 02:25:00      0.000     0.096     0.007     0.001
   01/01/2000 02:30:00      0.000     0.114     0.008     0.001
   01/01/2000 02:35:00      0.000     0.132     0.009     0.002
   01/01/2000 02:40:00      0.000     0.150     0.010     0.002
   01/01/2000 02:45:00      0.000     0.167     0.010     0.002
   01/01/2000 02:50:00      0.000     0.183     0.011     0.002
   01/01/2000 02:55:00      0.000     0.198     0.011     0.002
   01/01/2000 03:00:00      0.000     0.212     0.012     0.002
   01/01/2000 03:05:00      0.000     0.225     0.012     0.002
   01/01/2000 03:10:00      0.000     0.237     0.013     0.003
   01/01/2000 03:15:00      0.001     0.248     0.013     0.003
   01/01/2000 03:20:00      0.001     0.257     0.014     0.003
   01/01/2000 03:25:00      0.001     0.267     0.014     0.003
   01/01/2000 03:30:00      0.001     0.275     0.015     0.003
   01/01/2000 03:35:00      0.001     0.283     0.015     0.003
   01/01/2000 03:40:00      0.001     0.290     0.015     0.003
   01/01/2000 03:45:00      0.001     0.296     0.016     0.003
   01/01/2000 03:50:00      0.001     0.302     0.016     0.003
   01/01/2000 03:55:00      0.001     0.308     0.016     0.003
   01/01/2000 04:00:00      0.001     0.313     0.016     0.004
   01/01/2000 04:05:00      0.001     0.318     0.017     0.004
   01/01/2000 04:10:00      0.001     0.323     0.017     0.004
   01/01/2000 04:15:00      0.001     0.327     0.017     0.004
   01/01/2000 04:20:00      0.001     0.331     0.017     0.004
   01/01/2000 04:25:00      0.001     0.334     0.017     0.004
   01/01/2000 04:30:00      0.001     0.338     0.018     0.004
   01/01/2000 04:35:00      0.001     0.341     0.018     0.004
   01/01/2000 04:40:00      0.001     0.344     0.018     0.004
   01/01/2000 04:45:00      0.001     0.347     0.018     0.004
   01/01/2000 04:50:00      0.001     0.349     0.018     0.004
   01/01/2000 04:55:00      0.001     0.352     0.018     0.004
   01/01/2000 05:00:00      0.001     0.354     0.019     0.004
   01/01/2000 05:05:00      0.001     0.356     0.019     0.004
   01/01/2000 05:10:00      0.001     0.358     0.019     0.004
   01/01/2000 05:15:00      0.001     0.360     0.019     0.004
   01/01/2000 05:20:00      0.001     0.362     0.019     0.004
   01/01/2000 05:25:00      0.001     0.364     0.019     0.004
   01/01/2000 05:30:00      0.001     0.365     0.019     0.004
   01/01/2000 05:35:00      0.001     0.367     0.019     0.005
   01/01/2000 05:40:00      0.001     0.369     0.020     0.005
   01/01/2000 05:45:00      0.001     0.371     0.020     0.005
   01/01/2000 05:50:00      0.001     0.372     0.020     0.005
   01/01/2000 05:55:00      0.001     0.374     0.020     0.005
   01/01/2000 06:00:00      0.001     0.376     0.020     0.005
   01/01/2000 06:05:00      0.001     0.377     0.020     0.005
   01/01/2000 06:10:00      0.001     0.378     0.020     0.005
   01/01/2000 06:15:00      0.001     0.380     0.020     0.005
   01/01/2000 06:20:00      0.001     0.381     0.020     0.005
   01/01/2000 06:25:00      0.001     0.382     0.021     0.005
   01/01/2000 06:30:00      0.001     0.384     0.021     0.005
   01/01/2000 06:35:00      0.002     0.385     0.021     0.005
   01/01/2000 06:40:00      0.002     0.386     0.021     0.005
   01/01/2000 06:45:00      0.002     0.387     0.021     0.005
   01/01/2000 06:50:00      0.002     0.389     0.021     0.005
   01/01/2000 06:55:00      0.002     0.390     0.021     0.005
   01/01/2000 07:00:00      0.002     0.391     0.021     0.005
   01/01/2000 07:05:00      0.002     0.392     0.021     0.005
   01/01/2000 07:10:00      0.002     0.394     0.022     0.005
   01/01/2000 07:15:00      0.002     0.395     0.022     0.005
   01/01/2000 07:20:00      0.002     0.396     0.022     0.005
   01/01/2000 07:25:00      0.002     0.397     0.022     0.005
   01/01/2000 07:30:00      0.002     0.399     0.022     0.005
   01/01/2000 07:35:00      0.002     0.400     0.022     0.006
   01/01/2000 07:40:00      0.002     0.401     0.022     0.006
   01/01/2000 07:45:00      0.002     0.402     0.022     0.006
   01/01/2000 07:50:00      0.002     0.403     0.022     0.006
   01/01/2000 07:55:00      0.002     0.404     0.023     0.006
   01/01/2000 08:00:00      0.002     0.406     0.023     0.006
   01/01/2000 08:05:00      0.002     0.407     0.023     0.006
   01/01/2000 08:10:00      0.002     0.408     0.023     0.006
   01/01/2000 08:15:00      0.002     0.409     0.023     0.006
   01/01/2000 08:20:00      0.002     0.410     0.023     0.006
   01/01/2000 08:25:00      0.002     0.411     0.023     0.006
   01/01/2000 08:30:00      0.002     0.412     0.023     0.006
   01/01/2000 08:35:00      0.002     0.414     0.023     0.006
   01/01/2000 08:40:00      0.002     0.415     0.023     0.006
   01/01/2000 08:45:00      0.002     0.416     0.024     0.006
   01/01/2000 08:50:00      0.002     0.417     0.024     0.006
   01/01/2000 08:55:00      0.002     0.418     0.024     0.006
   01/01/2000 09:00:00      0.002     0.419     0.024     0.006
   01/01/2000 09:05:00      0.002     0.420     0.024     0.006
   01/01/2000 09:10:00      0.002     0.420     0.024     0.006
   01/01/2000 09:15:00      0.002     0.421     0.024     0.006
   01/01/2000 09:20:00      0.002     0.422     0.024     0.006
   01/01/2000 09:25:00      0.002     0.423     0.025     0.006
   01/01/2000 09:30:00      0.002     0.425     0.025     0.007
   01/01/2000 09:35:00      0.002     0.427     0.025     0.007
   01/01/2000 09:40:00      0.002     0.429     0.025     0.007
   01/01/2000 09:45:00      0.002     0.431     0.026     0.007
   01/01/2000 09:50:00      0.002     0.434     0.026     0.007
   01/01/2000 09:55:00      0.002     0.437     0.026     0.007
   01/01/2000 10:00:00      0.003     0.441     0.027     0.007
   01/01/2000 10:05:00      0.003     0.445     0.027     0.007
   01/01/2000 10:10:00      0.003     0.449     0.027     0.008
   01/01/2000 10:15:00      0.003     0.453     0.027     0.008
   01/01/2000 10:20:00      0.003     0.457     0.028     0.008
   01/01/2000 10:25:00      0.003     0.460     0.028     0.008
   01/01/2000 10:30:00      0.003     0.463     0.028     0.008
   01/01/2000 10:35:00      0.003     0.465     0.028     0.008
   01/01/2000 10:40:00      0.003     0.467     0.028     0.008
   01/01/2000 10:45:00      0.003     0.468     0.029     0.008
   01/01/2000 10:50:00      0.003     0.470     0.029     0.008
   01/01/2000 10:55:00      0.003     0.472     0.029     0.008
   01/01/2000 11:00:00      0.003     0.475     0.030     0.009
   01/01/2000 11:05:00      0.003     0.478     0.030     0.009
   01/01/2000 11:10:00      0.003     0.481     0.030     0.009
   01/01/2000 11:15:00      0.003     0.485     0.031     0.009
   01/01/2000 11:20:00      0.004     0.489     0.031     0.009
   01/01/2000 11:25:00      0.004     0.494     0.032     0.010
   01/01/2000 11:30:00      0.004     0.500     0.032     0.010
   01/01/2000 11:35:00      0.004     0.505     0.033     0.010
   01/01/2000 11:40:00      0.004     0.511     0.034     0.010
   01/01/2000 11:45:00      0.004     0.517     0.035     0.011
   01/01/2000 11:50:00      0.005     0.524     0.035     0.011
   01/01/2000 11:55:00      0.005     0.532     0.036     0.012
   01/01/2000 12:00:00      0.005     0.540     0.037     0.012
   01/01/2000 12:05:00      0.005     0.548     0.038     0.012
   01/01/2000 12:10:00      0.006     0.556     0.039     0.013
   01/01/2000 12:15:00      0.006     0.564     0.041     0.014
   01/01/2000 12:20:00      0.007     0.574     0.042     0.015
   01/01/2000 12:25:00      0.007     0.587     0.044     0.016
   01/01/2000 12:30:00      0.008     0.603     0.046     0.017
   01/01/2000 12:35:00      0.009     0.579     0.051     0.019
   01/01/2000 12:40:00      0.011     0.585     0.061     0.025
   01/01/2000 12:45:00      0.019     0.680     0.077     0.036
   01/01/2000 12:50:00      0.033     0.812     0.100     0.052
   01/01/2000 12:55:00      0.066     1.101     0.130     0.077
   01/01/2000 13:00:00      0.086     1.274     0.141     0.086
   01/01/2000 13:05:00      0.083     1.386     0.129     0.076
   01/01/2000 13:10:00      0.063     1.278     0.113     0.063
   01/01/2000 13:15:00      0.048     1.169     0.100     0.052
   01/01/2000 13:20:00      0.038     1.084     0.090     0.045
   01/01/2000 13:25:00      0.033     1.039     0.084     0.040
   01/01/2000 13:30:00      0.028     0.991     0.077     0.036
   01/01/2000 13:35:00      0.024     0.938     0.072     0.032
   01/01/2000 13:40:00      0.020     0.892     0.067     0.029
   01/01/2000 13:45:00      0.018     0.855     0.063     0.027
   01/01/2000 13:50:00      0.016     0.826     0.060     0.024
   01/01/2000 13:55:00      0.014     0.793     0.057     0.023
   01/01/2000 14:00:00      0.013     0.766     0.054     0.021
   01/01/2000 14:05:00      0.012     0.740     0.052     0.020
   01/01/2000 14:10:00      0.011     0.718     0.050     0.019
   01/01/2000 14:15:00      0.010     0.699     0.048     0.018
   01/01/2000 14:20:00      0.009     0.683     0.047     0.017
   01/01/2000 14:25:00      0.009     0.668     0.045     0.016
   01/01/2000 14:30:00      0.008     0.656     0.044     0.016
   01/01/2000 14:35:00      0.008     0.645     0.043     0.015
   01/01/2000 14:40:00      0.007     0.634     0.042     0.014
   01/01/2000 14:45:00      0.007     0.625     0.041     0.014
   01/01/2000 14:50:00      0.006     0.616     0.040     0.013
   01/01/2000 14:55:00      0.006     0.607     0.039     0.013
   01/01/2000 15:00:00      0.006     0.597     0.038     0.012
   01/01/2000 15:05:00      0.006     0.588     0.037     0.012
   01/01/2000 15:10:00      0.005     0.579     0.036     0.012
   01/01/2000 15:15:00      0.005     0.570     0.036     0.011
   01/01/2000 15:20:00      0.005     0.563     0.035     0.011
   01/01/2000 15:25:00      0.005     0.556     0.035     0.011
   01/01/2000 15:30:00      0.005     0.549     0.034     0.011
   01/01/2000 15:35:00      0.004     0.543     0.034     0.010
   01/01/2000 15:40:00      0.004     0.537     0.033     0.010
   01/01/2000 15:45:00      0.004     0.532     0.033     0.010
   01/01/2000 15:50:00      0.004     0.527     0.032     0.010
   01/01/2000 15:55:00      0.004     0.523     0.032     0.010
   01/01/2000 16:00:00      0.004     0.519     0.032     0.009
   01/01/2000 16:05:00      0.004     0.514     0.031     0.009
   01/01/2000 16:10:00      0.004     0.511     0.031     0.009
   01/01/2000 16:15:00      0.004     0.507     0.031     0.009
   01/01/2000 16:20:00      0.004     0.504     0.030     0.009
   01/01/2000 16:25:00      0.003     0.500     0.030     0.009
   01/01/2000 16:30:00      0.003     0.497     0.030     0.009
   01/01/2000 16:35:00      0.003     0.494     0.029     0.008
   01/01/2000 16:40:00      0.003     0.491     0.029     0.008
   01/01/2000 16:45:00      0.003     0.488     0.029     0.008
   01/01/2000 16:50:00      0.003     0.485     0.029     0.008
   01/01/2000 16:55:00      0.003     0.482     0.028     0.008
   01/01/2000 17:00:00      0.003     0.479     0.028     0.008
   01/01/2000 17:05:00      0.003     0.476     0.028     0.008
   01/01/2000 17:10:00      0.003     0.472     0.027     0.008
   01/01/2000 17:15:00      0.003     0.469     0.027     0.008
   01/01/2000 17:20:00      0.003     0.466     0.027     0.007
   01/01/2000 17:25:00      0.003     0.463     0.027     0.007
   01/01/2000 17:30:00      0.003     0.461     0.027     0.007
   01/01/2000 17:35:00      0.003     0.458     0.026     0.007
   01/01/2000 17:40:00      0.003     0.456     0.026     0.007
   01/01/2000 17:45:00      0.003     0.454     0.026     0.007
   01/01/2000 17:50:00      0.002     0.452     0.026     0.007
   01/01/2000 17:55:00      0.002     0.450     0.026     0.007
   01/01/2000 18:00:00      0.002     0.448     0.026     0.007
   01/01/2000 18:05:00      0.002     0.446     0.025     0.007
   01/01/2000 18:10:00      0.002     0.444     0.025     0.007
   01/01/2000 18:15:00      0.002     0.443     0.025     0.007
   01/01/2000 18:20:00      0.002     0.441     0.025     0.007
   01/01/2000 18:25:00      0.002     0.439     0.025     0.007
   01/01/2000 18:30:00      0.002     0.438     0.025     0.007
   01/01/2000 18:35:00      0.002     0.436     0.025     0.006
   01/01/2000 18:40:00      0.002     0.435     0.024     0.006
   01/01/2000 18:45:00      0.002     0.433     0.024     0.006
   01/01/2000 18:50:00      0.002     0.432     0.024     0.006
   01/01/2000 18:55:00      0.002     0.431     0.024     0.006
   01/01/2000 19:00:00      0.002     0.429     0.024     0.006
   01/01/2000 19:05:00      0.002     0.428     0.024     0.006
   01/01/2000 19:10:00      0.002     0.427     0.024     0.006
   01/01/2000 19:15:00      0.002     0.425     0.024     0.006
   01/01/2000 19:20:00      0.002     0.424     0.023     0.006
   01/01/2000 19:25:00      0.002     0.423     0.023     0.006
   01/01/2000 19:30:00      0.002     0.421     0.023     0.006
   01/01/2000 19:35:00      0.002     0.420     0.023     0.006
   01/01/2000 19:40:00      0.002     0.419     0.023     0.006
   01/01/2000 19:45:00      0.002     0.417     0.023     0.006
   01/01/2000 19:50:00      0.002     0.416     0.023     0.006
   01/01/2000 19:55:00      0.002     0.415     0.023     0.006
   01/01/2000 20:00:00      0.002     0.414     0.022     0.006
   01/01/2000 20:05:00      0.002     0.412     0.022     0.006
   01/01/2000 20:10:00      0.002     0.411     0.022     0.006
   01/01/2000 20:15:00      0.002     0.410     0.022     0.006
   01/01/2000 20:20:00      0.002     0.408     0.022     0.005
   01/01/2000 20:25:00      0.002     0.407     0.022     0.005
   01/01/2000 20:30:00      0.002     0.406     0.022     0.005
   01/01/2000 20:35:00      0.002     0.405     0.022     0.005
   01/01/2000 20:40:00      0.002     0.403     0.021     0.005
   01/01/2000 20:45:00      0.002     0.402     0.021     0.005
   01/01/2000 20:50:00      0.002     0.401     0.021     0.005
   01/01/2000 20:55:00      0.002     0.400     0.021     0.005
   01/01/2000 21:00:00      0.002     0.398     0.021     0.005
   01/01/2000 21:05:00      0.002     0.397     0.021     0.005
   01/01/2000 21:10:00      0.002     0.395     0.021     0.005
   01/01/2000 21:15:00      0.002     0.394     0.021     0.005
   01/01/2000 21:20:00      0.002     0.392     0.021     0.005
   01/01/2000 21:25:00      0.001     0.391     0.020     0.005
   01/01/2000 21:30:00      0.001     0.390     0.020     0.005
   01/01/2000 21:35:00      0.001     0.388     0.020     0.005
   01/01/2000 21:40:00      0.001     0.387     0.020     0.005
   01/01/2000 21:45:00      0.001     0.386     0.020     0.005
   01/01/2000 21:50:00      0.001     0.385     0.020     0.005
   01/01/2000 21:55:00      0.001     0.384     0.020     0.005
   01/01/2000 22:00:00      0.001     0.383     0.020     0.005
   01/01/2000 22:05:00      0.001     0.382     0.020     0.005
   01/01/2000 22:10:00      0.001     0.381     0.020     0.005
   01/01/2000 22:15:00      0.001     0.380     0.020     0.005
   01/01/2000 22:20:00      0.001     0.379     0.020     0.005
   01/01/2000 22:25:00      0.001     0.378     0.020     0.005
   01/01/2000 22:30:00      0.001     0.377     0.020     0.005
   01/01/2000 22:35:00      0.001     0.376     0.019     0.005
   01/01/2000 22:40:00      0.001     0.376     0.019     0.005
   01/01/2000 22:45:00      0.001     0.375     0.019     0.004
   01/01/2000 22:50:00      0.001     0.374     0.019     0.004
   01/01/2000 22:55:00      0.001     0.374     0.019     0.004
   01/01/2000 23:00:00      0.001     0.373     0.019     0.004
   01/01/2000 23:05:00      0.001     0.372     0.019     0.004
   01/01/2000 23:10:00      0.001     0.372     0.019     0.004
   01/01/2000 23:15:00      0.001     0.371     0.019     0.004
   01/01/2000 23:20:00      0.001     0.370     0.019     0.004
   01/01/2000 23:25:00      0.001     0.370     0.019     0.004
   01/01/2000 23:30:00      0.001     0.369     0.019     0.004
   01/01/2000 23:35:00      0.001     0.369     0.019     0.004
   01/01/2000 23:40:00      0.001     0.368     0.019     0.004
   01/01/2000 23:45:00      0.001     0.368     0.019     0.004
   01/01/2000 23:50:00      0.001     0.367     0.019     0.004
   01/01/2000 23:55:00      0.001     0.367     0.019     0.004
   01/02/2000 00:00:00      0.001     0.366     0.019     0.004
  

  Analysis begun on:  Tue Jan 14 14:54:57 2020
  Analysis ended on:  Tue Jan 14 14:54:57 2020
  Total elapsed time: < 1 sec