
  EPA STORM WATER MANAGEMENT MODEL - VERSION 5.1 (Build 5.1.013)
  --------------------------------------------------------------

  Scenario Run: BASE 
  
  
  *********************
  Rainfall File Summary
  *********************
  Station    First        Last         Recording   Periods    Periods    Periods
  ID         Date         Date         Frequency  w/Precip    Missing    Malfunc.
  -------------------------------------------------------------------------------
  rg_1       01/01/2000   01/02/2000      60 min       241          0          0

  
  *********************************************************
  NOTE: The summary statistics displayed in this report are
  based on results found at every computational time step,  
  not just on results from each reporting time step.
  *********************************************************
  
  ****************
  Analysis Options
  ****************
  Flow Units ............... CMS
  Process Models:
    Rainfall/Runoff ........ YES
    RDII ................... NO
    Snowmelt ............... NO
    Groundwater ............ NO
    Flow Routing ........... YES
    Ponding Allowed ........ NO
    Water Quality .......... NO
  Infiltration Method ...... MODIFIED_GREEN_AMPT
  Flow Routing Method ...... KINWAVE
  Starting Date ............ 01/01/2000 00:00:00
  Ending Date .............. 01/02/2000 00:00:00
  Antecedent Dry Days ...... 5.0
  Report Time Step ......... 00:05:00
  Wet Time Step ............ 00:15:00
  Dry Time Step ............ 01:00:00
  Routing Time Step ........ 60.00 sec
  
  
  **************************        Volume         Depth
  Runoff Quantity Continuity     hectare-m            mm
  **************************     ---------       -------
  Total Precipitation ......         0.119         9.888
  Evaporation Loss .........         0.000         0.000
  Infiltration Loss ........         0.023         1.939
  Surface Runoff ...........         0.093         7.724
  Final Storage ............         0.003         0.257
  Continuity Error (%) .....        -0.318
  
  
  **************************        Volume        Volume
  Flow Routing Continuity        hectare-m      10^6 ltr
  **************************     ---------     ---------
  Dry Weather Inflow .......         0.000         0.000
  Wet Weather Inflow .......         0.093         0.926
  Groundwater Inflow .......         0.000         0.000
  RDII Inflow ..............         0.000         0.000
  External Inflow ..........         0.000         0.000
  External Outflow .........         0.092         0.915
  Flooding Loss ............         0.000         0.000
  Evaporation Loss .........         0.000         0.000
  Exfiltration Loss ........         0.000         0.000
  Initial Stored Volume ....         0.000         0.000
  Final Stored Volume ......         0.001         0.005
  Continuity Error (%) .....         0.610
  
  
  ********************************
  Highest Flow Instability Indexes
  ********************************
  All links are stable.
  
  
  *************************
  Routing Time Step Summary
  *************************
  Minimum Time Step           :    60.00 sec
  Average Time Step           :    60.00 sec
  Maximum Time Step           :    60.00 sec
  Percent in Steady State     :     0.00
  Average Iterations per Step :     1.07
  Percent Not Converging      :     0.00
  
  
  ***************************
  Subcatchment Runoff Summary
  ***************************
  
  ------------------------------------------------------------------------------------------------------------------------------
                            Total      Total      Total      Total     Imperv       Perv      Total       Total     Peak  Runoff
                           Precip      Runon       Evap      Infil     Runoff     Runoff     Runoff      Runoff   Runoff   Coeff
  Subcatchment                 mm         mm         mm         mm         mm         mm         mm    10^6 ltr      CMS
  ------------------------------------------------------------------------------------------------------------------------------
  S1                         9.89       0.00       0.00       0.91       7.72       1.18       8.90        0.36     0.12   0.900
  S2                         9.89       0.00       0.00       3.45       0.35       6.04       6.39        0.26     0.07   0.646
  S3                         9.89       0.00       0.00       1.46       6.83       1.54       7.88        0.32     0.13   0.797
  

  ***********************
  LID Performance Summary
  ***********************

  --------------------------------------------------------------------------------------------------------------------
                                         Total      Evap     Infil   Surface    Drain    Initial     Final  Continuity
                                        Inflow      Loss      Loss   Outflow   Outflow   Storage   Storage       Error
  Subcatchment      LID Control             mm        mm        mm        mm        mm        mm        mm           %
  --------------------------------------------------------------------------------------------------------------------
  S3                rb                 4108.61      0.00      0.00   3108.61      0.00      0.00   1000.00        0.00
  
  ******************
  Node Depth Summary
  ******************
  
  ---------------------------------------------------------------------------------
                                 Average  Maximum  Maximum  Time of Max    Reported
                                   Depth    Depth      HGL   Occurrence   Max Depth
  Node                 Type       Meters   Meters   Meters  days hr:min      Meters
  ---------------------------------------------------------------------------------
  J3                   JUNCTION     0.02     0.15    93.15     0  12:54        0.15
  J1                   JUNCTION     0.02     0.09    96.09     0  12:54        0.09
  J4                   JUNCTION     0.04     0.26    88.26     0  13:03        0.26
  J2                   JUNCTION     0.04     0.27    90.27     0  13:00        0.27
  OUT1                 OUTFALL      0.03     0.17    85.17     0  13:03        0.17
  
  
  *******************
  Node Inflow Summary
  *******************
  
  -------------------------------------------------------------------------------------------------
                                  Maximum  Maximum                  Lateral       Total        Flow
                                  Lateral    Total  Time of Max      Inflow      Inflow     Balance
                                   Inflow   Inflow   Occurrence      Volume      Volume       Error
  Node                 Type           CMS      CMS  days hr:min    10^6 ltr    10^6 ltr     Percent
  -------------------------------------------------------------------------------------------------
  J3                   JUNCTION     0.130    0.130     0  12:54       0.315       0.315       0.000
  J1                   JUNCTION     0.118    0.118     0  12:54       0.356       0.356       0.000
  J4                   JUNCTION     0.000    0.285     0  13:02           0       0.917       0.000
  J2                   JUNCTION     0.068    0.180     0  13:00       0.256        0.61       0.000
  OUT1                 OUTFALL      0.000    0.283     0  13:03           0       0.915       0.000
  
  
  *********************
  Node Flooding Summary
  *********************
  
  No nodes were flooded.
  
  
  ***********************
  Outfall Loading Summary
  ***********************
  
  -----------------------------------------------------------
                         Flow       Avg       Max       Total
                         Freq      Flow      Flow      Volume
  Outfall Node           Pcnt       CMS       CMS    10^6 ltr
  -----------------------------------------------------------
  OUT1                  90.28     0.012     0.283       0.915
  -----------------------------------------------------------
  System                90.28     0.012     0.283       0.915
  
  
  ********************
  Link Flow Summary
  ********************
  
  -----------------------------------------------------------------------------
                                 Maximum  Time of Max   Maximum    Max/    Max/
                                  |Flow|   Occurrence   |Veloc|    Full    Full
  Link                 Type          CMS  days hr:min     m/sec    Flow   Depth
  -----------------------------------------------------------------------------
  C3                   CONDUIT     0.118     0  12:59      1.45    0.02    0.10
  C4                   CONDUIT     0.283     0  13:03      2.26    0.01    0.08
  C2                   CONDUIT     0.175     0  13:03      1.13    0.15    0.26
  C1                   CONDUIT     0.115     0  12:57      3.18    0.02    0.09
  
  
  *************************
  Conduit Surcharge Summary
  *************************
  
  No conduits were surcharged.
  
  
  ********************
  Subcatchment Results
  ********************
  
  <<< Subcatchment S1 >>>
  ---------------------------------------------------
  Date        Time        Precip.    Losses    Runoff
                            mm/hr     mm/hr       CMS
  ---------------------------------------------------
   01/01/2000 00:05:00      0.000     0.000    0.0000
   01/01/2000 00:10:00      0.000     0.000    0.0000
   01/01/2000 00:15:00      0.000     0.000    0.0000
   01/01/2000 00:20:00      0.000     0.000    0.0000
   01/01/2000 00:25:00      0.000     0.000    0.0000
   01/01/2000 00:30:00      0.000     0.000    0.0000
   01/01/2000 00:35:00      0.000     0.000    0.0000
   01/01/2000 00:40:00      0.000     0.000    0.0000
   01/01/2000 00:45:00      0.000     0.000    0.0000
   01/01/2000 00:50:00      0.000     0.000    0.0000
   01/01/2000 00:55:00      0.000     0.000    0.0000
   01/01/2000 01:00:00      0.101     0.000    0.0000
   01/01/2000 01:05:00      0.101     0.021    0.0000
   01/01/2000 01:10:00      0.101     0.021    0.0000
   01/01/2000 01:15:00      0.103     0.022    0.0000
   01/01/2000 01:20:00      0.103     0.022    0.0000
   01/01/2000 01:25:00      0.105     0.022    0.0000
   01/01/2000 01:30:00      0.105     0.022    0.0000
   01/01/2000 01:35:00      0.105     0.022    0.0000
   01/01/2000 01:40:00      0.107     0.023    0.0000
   01/01/2000 01:45:00      0.107     0.023    0.0000
   01/01/2000 01:50:00      0.109     0.023    0.0000
   01/01/2000 01:55:00      0.109     0.023    0.0000
   01/01/2000 02:00:00      0.111     0.023    0.0003
   01/01/2000 02:05:00      0.111     0.023    0.0004
   01/01/2000 02:10:00      0.111     0.023    0.0004
   01/01/2000 02:15:00      0.113     0.024    0.0005
   01/01/2000 02:20:00      0.113     0.024    0.0005
   01/01/2000 02:25:00      0.115     0.024    0.0006
   01/01/2000 02:30:00      0.115     0.024    0.0006
   01/01/2000 02:35:00      0.115     0.024    0.0007
   01/01/2000 02:40:00      0.117     0.025    0.0007
   01/01/2000 02:45:00      0.117     0.025    0.0008
   01/01/2000 02:50:00      0.119     0.025    0.0008
   01/01/2000 02:55:00      0.119     0.025    0.0008
   01/01/2000 03:00:00      0.121     0.025    0.0009
   01/01/2000 03:05:00      0.121     0.025    0.0009
   01/01/2000 03:10:00      0.121     0.025    0.0009
   01/01/2000 03:15:00      0.123     0.026    0.0009
   01/01/2000 03:20:00      0.123     0.026    0.0010
   01/01/2000 03:25:00      0.125     0.026    0.0010
   01/01/2000 03:30:00      0.125     0.026    0.0010
   01/01/2000 03:35:00      0.125     0.026    0.0010
   01/01/2000 03:40:00      0.127     0.027    0.0010
   01/01/2000 03:45:00      0.127     0.027    0.0010
   01/01/2000 03:50:00      0.129     0.027    0.0010
   01/01/2000 03:55:00      0.129     0.027    0.0011
   01/01/2000 04:00:00      0.131     0.027    0.0011
   01/01/2000 04:05:00      0.131     0.028    0.0011
   01/01/2000 04:10:00      0.131     0.028    0.0011
   01/01/2000 04:15:00      0.133     0.028    0.0011
   01/01/2000 04:20:00      0.133     0.028    0.0011
   01/01/2000 04:25:00      0.135     0.028    0.0011
   01/01/2000 04:30:00      0.135     0.028    0.0011
   01/01/2000 04:35:00      0.135     0.028    0.0011
   01/01/2000 04:40:00      0.137     0.029    0.0011
   01/01/2000 04:45:00      0.137     0.029    0.0012
   01/01/2000 04:50:00      0.139     0.029    0.0012
   01/01/2000 04:55:00      0.139     0.029    0.0012
   01/01/2000 05:00:00      0.141     0.029    0.0012
   01/01/2000 05:05:00      0.141     0.030    0.0012
   01/01/2000 05:10:00      0.143     0.030    0.0012
   01/01/2000 05:15:00      0.145     0.031    0.0012
   01/01/2000 05:20:00      0.147     0.031    0.0012
   01/01/2000 05:25:00      0.149     0.031    0.0012
   01/01/2000 05:30:00      0.151     0.031    0.0012
   01/01/2000 05:35:00      0.153     0.032    0.0013
   01/01/2000 05:40:00      0.153     0.032    0.0013
   01/01/2000 05:45:00      0.155     0.033    0.0013
   01/01/2000 05:50:00      0.157     0.033    0.0013
   01/01/2000 05:55:00      0.159     0.033    0.0013
   01/01/2000 06:00:00      0.161     0.034    0.0013
   01/01/2000 06:05:00      0.163     0.034    0.0013
   01/01/2000 06:10:00      0.163     0.034    0.0014
   01/01/2000 06:15:00      0.165     0.035    0.0014
   01/01/2000 06:20:00      0.167     0.035    0.0014
   01/01/2000 06:25:00      0.169     0.036    0.0014
   01/01/2000 06:30:00      0.171     0.036    0.0014
   01/01/2000 06:35:00      0.173     0.036    0.0014
   01/01/2000 06:40:00      0.173     0.036    0.0014
   01/01/2000 06:45:00      0.175     0.037    0.0015
   01/01/2000 06:50:00      0.177     0.037    0.0015
   01/01/2000 06:55:00      0.179     0.038    0.0015
   01/01/2000 07:00:00      0.181     0.038    0.0015
   01/01/2000 07:05:00      0.183     0.038    0.0015
   01/01/2000 07:10:00      0.183     0.039    0.0015
   01/01/2000 07:15:00      0.185     0.039    0.0015
   01/01/2000 07:20:00      0.187     0.039    0.0016
   01/01/2000 07:25:00      0.189     0.040    0.0016
   01/01/2000 07:30:00      0.191     0.040    0.0016
   01/01/2000 07:35:00      0.193     0.040    0.0016
   01/01/2000 07:40:00      0.193     0.041    0.0016
   01/01/2000 07:45:00      0.195     0.041    0.0016
   01/01/2000 07:50:00      0.197     0.041    0.0017
   01/01/2000 07:55:00      0.199     0.042    0.0017
   01/01/2000 08:00:00      0.201     0.042    0.0017
   01/01/2000 08:05:00      0.203     0.042    0.0017
   01/01/2000 08:10:00      0.203     0.043    0.0017
   01/01/2000 08:15:00      0.205     0.043    0.0017
   01/01/2000 08:20:00      0.207     0.044    0.0017
   01/01/2000 08:25:00      0.209     0.044    0.0018
   01/01/2000 08:30:00      0.211     0.044    0.0018
   01/01/2000 08:35:00      0.213     0.044    0.0018
   01/01/2000 08:40:00      0.213     0.045    0.0018
   01/01/2000 08:45:00      0.215     0.045    0.0018
   01/01/2000 08:50:00      0.217     0.046    0.0018
   01/01/2000 08:55:00      0.219     0.046    0.0018
   01/01/2000 09:00:00      0.225     0.047    0.0019
   01/01/2000 09:05:00      0.235     0.047    0.0019
   01/01/2000 09:10:00      0.235     0.049    0.0019
   01/01/2000 09:15:00      0.245     0.050    0.0020
   01/01/2000 09:20:00      0.255     0.050    0.0020
   01/01/2000 09:25:00      0.265     0.050    0.0021
   01/01/2000 09:30:00      0.275     0.049    0.0021
   01/01/2000 09:35:00      0.285     0.049    0.0022
   01/01/2000 09:40:00      0.285     0.049    0.0022
   01/01/2000 09:45:00      0.295     0.049    0.0023
   01/01/2000 09:50:00      0.305     0.049    0.0024
   01/01/2000 09:55:00      0.315     0.049    0.0024
   01/01/2000 10:00:00      0.320     0.049    0.0025
   01/01/2000 10:05:00      0.320     0.049    0.0026
   01/01/2000 10:10:00      0.320     0.049    0.0026
   01/01/2000 10:15:00      0.320     0.049    0.0027
   01/01/2000 10:20:00      0.320     0.049    0.0027
   01/01/2000 10:25:00      0.320     0.049    0.0027
   01/01/2000 10:30:00      0.328     0.049    0.0027
   01/01/2000 10:35:00      0.344     0.049    0.0028
   01/01/2000 10:40:00      0.344     0.049    0.0028
   01/01/2000 10:45:00      0.360     0.049    0.0029
   01/01/2000 10:50:00      0.376     0.049    0.0030
   01/01/2000 10:55:00      0.392     0.049    0.0031
   01/01/2000 11:00:00      0.412     0.049    0.0032
   01/01/2000 11:05:00      0.436     0.049    0.0033
   01/01/2000 11:10:00      0.436     0.050    0.0035
   01/01/2000 11:15:00      0.460     0.050    0.0037
   01/01/2000 11:20:00      0.484     0.050    0.0038
   01/01/2000 11:25:00      0.508     0.050    0.0040
   01/01/2000 11:30:00      0.540     0.050    0.0043
   01/01/2000 11:35:00      0.580     0.050    0.0045
   01/01/2000 11:40:00      0.580     0.050    0.0048
   01/01/2000 11:45:00      0.620     0.050    0.0051
   01/01/2000 11:50:00      0.660     0.050    0.0054
   01/01/2000 11:55:00      0.700     0.050    0.0058
   01/01/2000 12:00:00      0.768     0.051    0.0062
   01/01/2000 12:05:00      0.864     0.051    0.0066
   01/01/2000 12:10:00      0.864     0.051    0.0072
   01/01/2000 12:15:00      0.960     0.051    0.0079
   01/01/2000 12:20:00      1.056     0.051    0.0087
   01/01/2000 12:25:00      1.152     0.051    0.0095
   01/01/2000 12:30:00      2.384     0.052    0.0111
   01/01/2000 12:35:00      4.752     0.052    0.0160
   01/01/2000 12:40:00      4.752     0.053    0.0294
   01/01/2000 12:45:00      7.643     0.056    0.0507
   01/01/2000 12:50:00     13.707     0.061    0.0889
   01/01/2000 12:55:00      9.514     0.068    0.1150
   01/01/2000 13:00:00      1.896     0.067    0.1002
   01/01/2000 13:05:00      1.668     0.067    0.0553
   01/01/2000 13:10:00      1.668     0.060    0.0389
   01/01/2000 13:15:00      1.440     0.057    0.0293
   01/01/2000 13:20:00      1.212     0.055    0.0232
   01/01/2000 13:25:00      0.984     0.053    0.0190
   01/01/2000 13:30:00      0.844     0.052    0.0158
   01/01/2000 13:35:00      0.792     0.052    0.0134
   01/01/2000 13:40:00      0.792     0.051    0.0119
   01/01/2000 13:45:00      0.740     0.051    0.0107
   01/01/2000 13:50:00      0.688     0.050    0.0097
   01/01/2000 13:55:00      0.636     0.050    0.0089
   01/01/2000 14:00:00      0.596     0.049    0.0082
   01/01/2000 14:05:00      0.568     0.049    0.0076
   01/01/2000 14:10:00      0.568     0.049    0.0072
   01/01/2000 14:15:00      0.540     0.049    0.0067
   01/01/2000 14:20:00      0.512     0.049    0.0064
   01/01/2000 14:25:00      0.484     0.048    0.0061
   01/01/2000 14:30:00      0.460     0.048    0.0057
   01/01/2000 14:35:00      0.440     0.048    0.0055
   01/01/2000 14:40:00      0.440     0.048    0.0052
   01/01/2000 14:45:00      0.420     0.048    0.0050
   01/01/2000 14:50:00      0.400     0.048    0.0048
   01/01/2000 14:55:00      0.380     0.047    0.0046
   01/01/2000 15:00:00      0.367     0.047    0.0044
   01/01/2000 15:05:00      0.359     0.047    0.0042
   01/01/2000 15:10:00      0.359     0.047    0.0040
   01/01/2000 15:15:00      0.353     0.047    0.0039
   01/01/2000 15:20:00      0.345     0.047    0.0038
   01/01/2000 15:25:00      0.339     0.047    0.0037
   01/01/2000 15:30:00      0.331     0.047    0.0036
   01/01/2000 15:35:00      0.325     0.047    0.0035
   01/01/2000 15:40:00      0.325     0.046    0.0034
   01/01/2000 15:45:00      0.317     0.046    0.0034
   01/01/2000 15:50:00      0.311     0.046    0.0033
   01/01/2000 15:55:00      0.303     0.046    0.0032
   01/01/2000 16:00:00      0.297     0.046    0.0031
   01/01/2000 16:05:00      0.289     0.046    0.0031
   01/01/2000 16:10:00      0.289     0.046    0.0030
   01/01/2000 16:15:00      0.283     0.046    0.0029
   01/01/2000 16:20:00      0.275     0.046    0.0029
   01/01/2000 16:25:00      0.269     0.046    0.0028
   01/01/2000 16:30:00      0.261     0.046    0.0028
   01/01/2000 16:35:00      0.255     0.046    0.0027
   01/01/2000 16:40:00      0.255     0.046    0.0026
   01/01/2000 16:45:00      0.247     0.045    0.0026
   01/01/2000 16:50:00      0.241     0.045    0.0025
   01/01/2000 16:55:00      0.233     0.045    0.0024
   01/01/2000 17:00:00      0.229     0.045    0.0024
   01/01/2000 17:05:00      0.226     0.045    0.0023
   01/01/2000 17:10:00      0.226     0.045    0.0023
   01/01/2000 17:15:00      0.224     0.045    0.0022
   01/01/2000 17:20:00      0.221     0.045    0.0022
   01/01/2000 17:25:00      0.219     0.045    0.0022
   01/01/2000 17:30:00      0.216     0.045    0.0021
   01/01/2000 17:35:00      0.214     0.045    0.0021
   01/01/2000 17:40:00      0.214     0.045    0.0021
   01/01/2000 17:45:00      0.211     0.045    0.0020
   01/01/2000 17:50:00      0.209     0.045    0.0020
   01/01/2000 17:55:00      0.206     0.045    0.0020
   01/01/2000 18:00:00      0.204     0.045    0.0020
   01/01/2000 18:05:00      0.201     0.045    0.0019
   01/01/2000 18:10:00      0.201     0.044    0.0019
   01/01/2000 18:15:00      0.199     0.044    0.0019
   01/01/2000 18:20:00      0.196     0.044    0.0019
   01/01/2000 18:25:00      0.194     0.044    0.0018
   01/01/2000 18:30:00      0.191     0.044    0.0018
   01/01/2000 18:35:00      0.189     0.044    0.0018
   01/01/2000 18:40:00      0.189     0.044    0.0018
   01/01/2000 18:45:00      0.186     0.044    0.0017
   01/01/2000 18:50:00      0.184     0.044    0.0017
   01/01/2000 18:55:00      0.181     0.044    0.0017
   01/01/2000 19:00:00      0.179     0.044    0.0017
   01/01/2000 19:05:00      0.176     0.044    0.0017
   01/01/2000 19:10:00      0.176     0.044    0.0016
   01/01/2000 19:15:00      0.174     0.044    0.0016
   01/01/2000 19:20:00      0.171     0.044    0.0016
   01/01/2000 19:25:00      0.169     0.044    0.0016
   01/01/2000 19:30:00      0.166     0.044    0.0016
   01/01/2000 19:35:00      0.164     0.044    0.0015
   01/01/2000 19:40:00      0.164     0.044    0.0015
   01/01/2000 19:45:00      0.161     0.044    0.0015
   01/01/2000 19:50:00      0.159     0.044    0.0015
   01/01/2000 19:55:00      0.156     0.044    0.0015
   01/01/2000 20:00:00      0.154     0.044    0.0015
   01/01/2000 20:05:00      0.154     0.043    0.0014
   01/01/2000 20:10:00      0.151     0.043    0.0014
   01/01/2000 20:15:00      0.149     0.043    0.0014
   01/01/2000 20:20:00      0.146     0.043    0.0014
   01/01/2000 20:25:00      0.144     0.043    0.0014
   01/01/2000 20:30:00      0.141     0.043    0.0014
   01/01/2000 20:35:00      0.141     0.043    0.0013
   01/01/2000 20:40:00      0.139     0.043    0.0013
   01/01/2000 20:45:00      0.136     0.043    0.0013
   01/01/2000 20:50:00      0.134     0.043    0.0013
   01/01/2000 20:55:00      0.131     0.043    0.0013
   01/01/2000 21:00:00      0.130     0.043    0.0012
   01/01/2000 21:05:00      0.130     0.043    0.0012
   01/01/2000 21:10:00      0.129     0.034    0.0012
   01/01/2000 21:15:00      0.129     0.027    0.0012
   01/01/2000 21:20:00      0.128     0.027    0.0012
   01/01/2000 21:25:00      0.128     0.027    0.0012
   01/01/2000 21:30:00      0.127     0.027    0.0012
   01/01/2000 21:35:00      0.127     0.027    0.0012
   01/01/2000 21:40:00      0.127     0.027    0.0012
   01/01/2000 21:45:00      0.126     0.027    0.0011
   01/01/2000 21:50:00      0.126     0.027    0.0011
   01/01/2000 21:55:00      0.125     0.026    0.0011
   01/01/2000 22:00:00      0.125     0.026    0.0011
   01/01/2000 22:05:00      0.125     0.026    0.0011
   01/01/2000 22:10:00      0.124     0.026    0.0011
   01/01/2000 22:15:00      0.124     0.026    0.0011
   01/01/2000 22:20:00      0.123     0.026    0.0011
   01/01/2000 22:25:00      0.123     0.026    0.0011
   01/01/2000 22:30:00      0.122     0.026    0.0011
   01/01/2000 22:35:00      0.122     0.026    0.0011
   01/01/2000 22:40:00      0.122     0.026    0.0011
   01/01/2000 22:45:00      0.121     0.025    0.0011
   01/01/2000 22:50:00      0.121     0.025    0.0011
   01/01/2000 22:55:00      0.120     0.025    0.0011
   01/01/2000 23:00:00      0.120     0.025    0.0011
   01/01/2000 23:05:00      0.120     0.025    0.0011
   01/01/2000 23:10:00      0.119     0.025    0.0011
   01/01/2000 23:15:00      0.119     0.025    0.0011
   01/01/2000 23:20:00      0.118     0.025    0.0011
   01/01/2000 23:25:00      0.118     0.025    0.0011
   01/01/2000 23:30:00      0.117     0.025    0.0011
   01/01/2000 23:35:00      0.117     0.025    0.0011
   01/01/2000 23:40:00      0.117     0.025    0.0010
   01/01/2000 23:45:00      0.116     0.024    0.0010
   01/01/2000 23:50:00      0.116     0.024    0.0010
   01/01/2000 23:55:00      0.115     0.024    0.0010
   01/02/2000 00:00:00      0.115     0.024    0.0010
  
  
  <<< Subcatchment S2 >>>
  ---------------------------------------------------
  Date        Time        Precip.    Losses    Runoff
                            mm/hr     mm/hr       CMS
  ---------------------------------------------------
   01/01/2000 00:05:00      0.000     0.000    0.0000
   01/01/2000 00:10:00      0.000     0.000    0.0000
   01/01/2000 00:15:00      0.000     0.000    0.0000
   01/01/2000 00:20:00      0.000     0.000    0.0000
   01/01/2000 00:25:00      0.000     0.000    0.0000
   01/01/2000 00:30:00      0.000     0.000    0.0000
   01/01/2000 00:35:00      0.000     0.000    0.0000
   01/01/2000 00:40:00      0.000     0.000    0.0000
   01/01/2000 00:45:00      0.000     0.000    0.0000
   01/01/2000 00:50:00      0.000     0.000    0.0000
   01/01/2000 00:55:00      0.000     0.000    0.0000
   01/01/2000 01:00:00      0.101     0.000    0.0000
   01/01/2000 01:05:00      0.101     0.097    0.0000
   01/01/2000 01:10:00      0.101     0.097    0.0000
   01/01/2000 01:15:00      0.103     0.099    0.0000
   01/01/2000 01:20:00      0.103     0.099    0.0000
   01/01/2000 01:25:00      0.105     0.101    0.0000
   01/01/2000 01:30:00      0.105     0.101    0.0000
   01/01/2000 01:35:00      0.105     0.101    0.0000
   01/01/2000 01:40:00      0.107     0.103    0.0000
   01/01/2000 01:45:00      0.107     0.103    0.0000
   01/01/2000 01:50:00      0.109     0.105    0.0000
   01/01/2000 01:55:00      0.109     0.105    0.0000
   01/01/2000 02:00:00      0.111     0.107    0.0000
   01/01/2000 02:05:00      0.111     0.107    0.0000
   01/01/2000 02:10:00      0.111     0.107    0.0000
   01/01/2000 02:15:00      0.113     0.109    0.0000
   01/01/2000 02:20:00      0.113     0.109    0.0000
   01/01/2000 02:25:00      0.115     0.111    0.0000
   01/01/2000 02:30:00      0.115     0.111    0.0000
   01/01/2000 02:35:00      0.115     0.111    0.0000
   01/01/2000 02:40:00      0.117     0.113    0.0000
   01/01/2000 02:45:00      0.117     0.113    0.0000
   01/01/2000 02:50:00      0.119     0.115    0.0000
   01/01/2000 02:55:00      0.119     0.115    0.0000
   01/01/2000 03:00:00      0.121     0.115    0.0000
   01/01/2000 03:05:00      0.121     0.117    0.0000
   01/01/2000 03:10:00      0.121     0.117    0.0000
   01/01/2000 03:15:00      0.123     0.119    0.0000
   01/01/2000 03:20:00      0.123     0.119    0.0000
   01/01/2000 03:25:00      0.125     0.121    0.0000
   01/01/2000 03:30:00      0.125     0.121    0.0000
   01/01/2000 03:35:00      0.125     0.121    0.0000
   01/01/2000 03:40:00      0.127     0.122    0.0000
   01/01/2000 03:45:00      0.127     0.122    0.0000
   01/01/2000 03:50:00      0.129     0.124    0.0000
   01/01/2000 03:55:00      0.129     0.124    0.0000
   01/01/2000 04:00:00      0.131     0.124    0.0000
   01/01/2000 04:05:00      0.131     0.126    0.0000
   01/01/2000 04:10:00      0.131     0.126    0.0000
   01/01/2000 04:15:00      0.133     0.128    0.0000
   01/01/2000 04:20:00      0.133     0.128    0.0000
   01/01/2000 04:25:00      0.135     0.130    0.0000
   01/01/2000 04:30:00      0.135     0.130    0.0000
   01/01/2000 04:35:00      0.135     0.130    0.0000
   01/01/2000 04:40:00      0.137     0.132    0.0000
   01/01/2000 04:45:00      0.137     0.132    0.0000
   01/01/2000 04:50:00      0.139     0.134    0.0000
   01/01/2000 04:55:00      0.139     0.134    0.0000
   01/01/2000 05:00:00      0.141     0.134    0.0000
   01/01/2000 05:05:00      0.141     0.136    0.0000
   01/01/2000 05:10:00      0.143     0.138    0.0000
   01/01/2000 05:15:00      0.145     0.140    0.0000
   01/01/2000 05:20:00      0.147     0.142    0.0000
   01/01/2000 05:25:00      0.149     0.144    0.0000
   01/01/2000 05:30:00      0.151     0.144    0.0000
   01/01/2000 05:35:00      0.153     0.146    0.0000
   01/01/2000 05:40:00      0.153     0.148    0.0000
   01/01/2000 05:45:00      0.155     0.149    0.0000
   01/01/2000 05:50:00      0.157     0.151    0.0000
   01/01/2000 05:55:00      0.159     0.153    0.0000
   01/01/2000 06:00:00      0.161     0.155    0.0000
   01/01/2000 06:05:00      0.163     0.155    0.0000
   01/01/2000 06:10:00      0.163     0.157    0.0000
   01/01/2000 06:15:00      0.165     0.159    0.0000
   01/01/2000 06:20:00      0.167     0.161    0.0000
   01/01/2000 06:25:00      0.169     0.163    0.0000
   01/01/2000 06:30:00      0.171     0.165    0.0000
   01/01/2000 06:35:00      0.173     0.165    0.0000
   01/01/2000 06:40:00      0.173     0.167    0.0000
   01/01/2000 06:45:00      0.175     0.169    0.0000
   01/01/2000 06:50:00      0.177     0.171    0.0000
   01/01/2000 06:55:00      0.179     0.173    0.0000
   01/01/2000 07:00:00      0.181     0.175    0.0000
   01/01/2000 07:05:00      0.183     0.175    0.0000
   01/01/2000 07:10:00      0.183     0.176    0.0000
   01/01/2000 07:15:00      0.185     0.177    0.0000
   01/01/2000 07:20:00      0.187     0.177    0.0000
   01/01/2000 07:25:00      0.189     0.176    0.0000
   01/01/2000 07:30:00      0.191     0.175    0.0000
   01/01/2000 07:35:00      0.193     0.175    0.0000
   01/01/2000 07:40:00      0.193     0.174    0.0000
   01/01/2000 07:45:00      0.195     0.174    0.0000
   01/01/2000 07:50:00      0.197     0.173    0.0000
   01/01/2000 07:55:00      0.199     0.172    0.0000
   01/01/2000 08:00:00      0.201     0.172    0.0000
   01/01/2000 08:05:00      0.203     0.172    0.0000
   01/01/2000 08:10:00      0.203     0.171    0.0000
   01/01/2000 08:15:00      0.205     0.171    0.0000
   01/01/2000 08:20:00      0.207     0.170    0.0000
   01/01/2000 08:25:00      0.209     0.170    0.0000
   01/01/2000 08:30:00      0.211     0.169    0.0000
   01/01/2000 08:35:00      0.213     0.169    0.0000
   01/01/2000 08:40:00      0.213     0.169    0.0000
   01/01/2000 08:45:00      0.215     0.168    0.0000
   01/01/2000 08:50:00      0.217     0.168    0.0000
   01/01/2000 08:55:00      0.219     0.168    0.0000
   01/01/2000 09:00:00      0.225     0.167    0.0000
   01/01/2000 09:05:00      0.235     0.167    0.0000
   01/01/2000 09:10:00      0.235     0.167    0.0000
   01/01/2000 09:15:00      0.245     0.166    0.0000
   01/01/2000 09:20:00      0.255     0.166    0.0000
   01/01/2000 09:25:00      0.265     0.166    0.0000
   01/01/2000 09:30:00      0.275     0.165    0.0000
   01/01/2000 09:35:00      0.285     0.165    0.0000
   01/01/2000 09:40:00      0.285     0.165    0.0000
   01/01/2000 09:45:00      0.295     0.165    0.0000
   01/01/2000 09:50:00      0.305     0.165    0.0000
   01/01/2000 09:55:00      0.315     0.164    0.0000
   01/01/2000 10:00:00      0.320     0.164    0.0000
   01/01/2000 10:05:00      0.320     0.164    0.0003
   01/01/2000 10:10:00      0.320     0.164    0.0004
   01/01/2000 10:15:00      0.320     0.164    0.0004
   01/01/2000 10:20:00      0.320     0.163    0.0004
   01/01/2000 10:25:00      0.320     0.163    0.0005
   01/01/2000 10:30:00      0.328     0.163    0.0005
   01/01/2000 10:35:00      0.344     0.163    0.0006
   01/01/2000 10:40:00      0.344     0.163    0.0006
   01/01/2000 10:45:00      0.360     0.162    0.0007
   01/01/2000 10:50:00      0.376     0.162    0.0008
   01/01/2000 10:55:00      0.392     0.162    0.0008
   01/01/2000 11:00:00      0.412     0.162    0.0009
   01/01/2000 11:05:00      0.436     0.162    0.0010
   01/01/2000 11:10:00      0.436     0.162    0.0011
   01/01/2000 11:15:00      0.460     0.161    0.0012
   01/01/2000 11:20:00      0.484     0.161    0.0013
   01/01/2000 11:25:00      0.508     0.161    0.0015
   01/01/2000 11:30:00      0.540     0.161    0.0016
   01/01/2000 11:35:00      0.580     0.161    0.0018
   01/01/2000 11:40:00      0.580     0.161    0.0019
   01/01/2000 11:45:00      0.620     0.161    0.0021
   01/01/2000 11:50:00      0.660     0.161    0.0024
   01/01/2000 11:55:00      0.700     0.161    0.0026
   01/01/2000 12:00:00      0.768     0.161    0.0029
   01/01/2000 12:05:00      0.864     0.161    0.0032
   01/01/2000 12:10:00      0.864     0.160    0.0035
   01/01/2000 12:15:00      0.960     0.160    0.0040
   01/01/2000 12:20:00      1.056     0.160    0.0045
   01/01/2000 12:25:00      1.152     0.160    0.0050
   01/01/2000 12:30:00      2.384     0.160    0.0059
   01/01/2000 12:35:00      4.752     0.160    0.0081
   01/01/2000 12:40:00      4.752     0.161    0.0138
   01/01/2000 12:45:00      7.643     0.162    0.0235
   01/01/2000 12:50:00     13.707     0.164    0.0427
   01/01/2000 12:55:00      9.514     0.167    0.0611
   01/01/2000 13:00:00      1.896     0.168    0.0659
   01/01/2000 13:05:00      1.668     0.168    0.0533
   01/01/2000 13:10:00      1.668     0.167    0.0458
   01/01/2000 13:15:00      1.440     0.166    0.0396
   01/01/2000 13:20:00      1.212     0.164    0.0344
   01/01/2000 13:25:00      0.984     0.163    0.0300
   01/01/2000 13:30:00      0.844     0.163    0.0263
   01/01/2000 13:35:00      0.792     0.163    0.0231
   01/01/2000 13:40:00      0.792     0.162    0.0206
   01/01/2000 13:45:00      0.740     0.161    0.0185
   01/01/2000 13:50:00      0.688     0.161    0.0167
   01/01/2000 13:55:00      0.636     0.160    0.0151
   01/01/2000 14:00:00      0.596     0.160    0.0138
   01/01/2000 14:05:00      0.568     0.160    0.0126
   01/01/2000 14:10:00      0.568     0.159    0.0116
   01/01/2000 14:15:00      0.540     0.159    0.0107
   01/01/2000 14:20:00      0.512     0.158    0.0099
   01/01/2000 14:25:00      0.484     0.158    0.0092
   01/01/2000 14:30:00      0.460     0.158    0.0086
   01/01/2000 14:35:00      0.440     0.158    0.0080
   01/01/2000 14:40:00      0.440     0.158    0.0075
   01/01/2000 14:45:00      0.420     0.157    0.0070
   01/01/2000 14:50:00      0.400     0.157    0.0066
   01/01/2000 14:55:00      0.380     0.157    0.0062
   01/01/2000 15:00:00      0.367     0.156    0.0058
   01/01/2000 15:05:00      0.359     0.156    0.0055
   01/01/2000 15:10:00      0.359     0.156    0.0052
   01/01/2000 15:15:00      0.353     0.156    0.0049
   01/01/2000 15:20:00      0.345     0.156    0.0047
   01/01/2000 15:25:00      0.339     0.156    0.0044
   01/01/2000 15:30:00      0.331     0.155    0.0042
   01/01/2000 15:35:00      0.325     0.155    0.0040
   01/01/2000 15:40:00      0.325     0.155    0.0039
   01/01/2000 15:45:00      0.317     0.155    0.0037
   01/01/2000 15:50:00      0.311     0.155    0.0035
   01/01/2000 15:55:00      0.303     0.155    0.0034
   01/01/2000 16:00:00      0.297     0.155    0.0033
   01/01/2000 16:05:00      0.289     0.155    0.0031
   01/01/2000 16:10:00      0.289     0.155    0.0030
   01/01/2000 16:15:00      0.283     0.154    0.0029
   01/01/2000 16:20:00      0.275     0.154    0.0028
   01/01/2000 16:25:00      0.269     0.154    0.0027
   01/01/2000 16:30:00      0.261     0.154    0.0026
   01/01/2000 16:35:00      0.255     0.154    0.0025
   01/01/2000 16:40:00      0.255     0.154    0.0024
   01/01/2000 16:45:00      0.247     0.154    0.0023
   01/01/2000 16:50:00      0.241     0.154    0.0022
   01/01/2000 16:55:00      0.233     0.153    0.0021
   01/01/2000 17:00:00      0.229     0.153    0.0020
   01/01/2000 17:05:00      0.226     0.153    0.0020
   01/01/2000 17:10:00      0.226     0.153    0.0019
   01/01/2000 17:15:00      0.224     0.153    0.0018
   01/01/2000 17:20:00      0.221     0.153    0.0018
   01/01/2000 17:25:00      0.219     0.153    0.0017
   01/01/2000 17:30:00      0.216     0.153    0.0016
   01/01/2000 17:35:00      0.214     0.153    0.0016
   01/01/2000 17:40:00      0.214     0.153    0.0015
   01/01/2000 17:45:00      0.211     0.153    0.0015
   01/01/2000 17:50:00      0.209     0.152    0.0014
   01/01/2000 17:55:00      0.206     0.152    0.0014
   01/01/2000 18:00:00      0.204     0.152    0.0013
   01/01/2000 18:05:00      0.201     0.152    0.0013
   01/01/2000 18:10:00      0.201     0.152    0.0013
   01/01/2000 18:15:00      0.199     0.152    0.0012
   01/01/2000 18:20:00      0.196     0.152    0.0012
   01/01/2000 18:25:00      0.194     0.152    0.0012
   01/01/2000 18:30:00      0.191     0.152    0.0011
   01/01/2000 18:35:00      0.189     0.152    0.0011
   01/01/2000 18:40:00      0.189     0.152    0.0010
   01/01/2000 18:45:00      0.186     0.152    0.0010
   01/01/2000 18:50:00      0.184     0.152    0.0010
   01/01/2000 18:55:00      0.181     0.151    0.0010
   01/01/2000 19:00:00      0.179     0.151    0.0009
   01/01/2000 19:05:00      0.176     0.151    0.0009
   01/01/2000 19:10:00      0.176     0.151    0.0009
   01/01/2000 19:15:00      0.174     0.151    0.0008
   01/01/2000 19:20:00      0.171     0.151    0.0008
   01/01/2000 19:25:00      0.169     0.151    0.0008
   01/01/2000 19:30:00      0.166     0.151    0.0008
   01/01/2000 19:35:00      0.164     0.151    0.0007
   01/01/2000 19:40:00      0.164     0.151    0.0007
   01/01/2000 19:45:00      0.161     0.151    0.0007
   01/01/2000 19:50:00      0.159     0.151    0.0007
   01/01/2000 19:55:00      0.156     0.151    0.0006
   01/01/2000 20:00:00      0.154     0.151    0.0006
   01/01/2000 20:05:00      0.154     0.151    0.0006
   01/01/2000 20:10:00      0.151     0.151    0.0006
   01/01/2000 20:15:00      0.149     0.150    0.0005
   01/01/2000 20:20:00      0.146     0.150    0.0005
   01/01/2000 20:25:00      0.144     0.150    0.0005
   01/01/2000 20:30:00      0.141     0.150    0.0005
   01/01/2000 20:35:00      0.141     0.150    0.0005
   01/01/2000 20:40:00      0.139     0.150    0.0004
   01/01/2000 20:45:00      0.136     0.150    0.0004
   01/01/2000 20:50:00      0.134     0.150    0.0004
   01/01/2000 20:55:00      0.131     0.150    0.0004
   01/01/2000 21:00:00      0.130     0.150    0.0004
   01/01/2000 21:05:00      0.130     0.150    0.0003
   01/01/2000 21:10:00      0.129     0.150    0.0003
   01/01/2000 21:15:00      0.129     0.150    0.0003
   01/01/2000 21:20:00      0.128     0.150    0.0003
   01/01/2000 21:25:00      0.128     0.150    0.0000
   01/01/2000 21:30:00      0.127     0.150    0.0000
   01/01/2000 21:35:00      0.127     0.150    0.0000
   01/01/2000 21:40:00      0.127     0.150    0.0000
   01/01/2000 21:45:00      0.126     0.150    0.0000
   01/01/2000 21:50:00      0.126     0.149    0.0000
   01/01/2000 21:55:00      0.125     0.149    0.0000
   01/01/2000 22:00:00      0.125     0.149    0.0000
   01/01/2000 22:05:00      0.125     0.149    0.0000
   01/01/2000 22:10:00      0.124     0.149    0.0000
   01/01/2000 22:15:00      0.124     0.149    0.0000
   01/01/2000 22:20:00      0.123     0.149    0.0000
   01/01/2000 22:25:00      0.123     0.149    0.0000
   01/01/2000 22:30:00      0.122     0.149    0.0000
   01/01/2000 22:35:00      0.122     0.149    0.0000
   01/01/2000 22:40:00      0.122     0.149    0.0000
   01/01/2000 22:45:00      0.121     0.149    0.0000
   01/01/2000 22:50:00      0.121     0.149    0.0000
   01/01/2000 22:55:00      0.120     0.149    0.0000
   01/01/2000 23:00:00      0.120     0.149    0.0000
   01/01/2000 23:05:00      0.120     0.149    0.0000
   01/01/2000 23:10:00      0.119     0.149    0.0000
   01/01/2000 23:15:00      0.119     0.149    0.0000
   01/01/2000 23:20:00      0.118     0.149    0.0000
   01/01/2000 23:25:00      0.118     0.149    0.0000
   01/01/2000 23:30:00      0.117     0.149    0.0000
   01/01/2000 23:35:00      0.117     0.149    0.0000
   01/01/2000 23:40:00      0.117     0.149    0.0000
   01/01/2000 23:45:00      0.116     0.148    0.0000
   01/01/2000 23:50:00      0.116     0.148    0.0000
   01/01/2000 23:55:00      0.115     0.148    0.0000
   01/02/2000 00:00:00      0.115     0.148    0.0000
  
  
  <<< Subcatchment S3 >>>
  ---------------------------------------------------
  Date        Time        Precip.    Losses    Runoff
                            mm/hr     mm/hr       CMS
  ---------------------------------------------------
   01/01/2000 00:05:00      0.000     0.000    0.0000
   01/01/2000 00:10:00      0.000     0.000    0.0000
   01/01/2000 00:15:00      0.000     0.000    0.0000
   01/01/2000 00:20:00      0.000     0.000    0.0000
   01/01/2000 00:25:00      0.000     0.000    0.0000
   01/01/2000 00:30:00      0.000     0.000    0.0000
   01/01/2000 00:35:00      0.000     0.000    0.0000
   01/01/2000 00:40:00      0.000     0.000    0.0000
   01/01/2000 00:45:00      0.000     0.000    0.0000
   01/01/2000 00:50:00      0.000     0.000    0.0000
   01/01/2000 00:55:00      0.000     0.000    0.0000
   01/01/2000 01:00:00      0.101     0.000    0.0000
   01/01/2000 01:05:00      0.101     0.031    0.0000
   01/01/2000 01:10:00      0.101     0.031    0.0000
   01/01/2000 01:15:00      0.103     0.031    0.0000
   01/01/2000 01:20:00      0.103     0.031    0.0000
   01/01/2000 01:25:00      0.105     0.032    0.0000
   01/01/2000 01:30:00      0.105     0.032    0.0000
   01/01/2000 01:35:00      0.105     0.032    0.0000
   01/01/2000 01:40:00      0.107     0.032    0.0000
   01/01/2000 01:45:00      0.107     0.032    0.0000
   01/01/2000 01:50:00      0.109     0.033    0.0000
   01/01/2000 01:55:00      0.109     0.033    0.0000
   01/01/2000 02:00:00      0.111     0.034    0.0000
   01/01/2000 02:05:00      0.111     0.034    0.0000
   01/01/2000 02:10:00      0.111     0.034    0.0000
   01/01/2000 02:15:00      0.113     0.034    0.0000
   01/01/2000 02:20:00      0.113     0.034    0.0003
   01/01/2000 02:25:00      0.115     0.035    0.0004
   01/01/2000 02:30:00      0.115     0.035    0.0004
   01/01/2000 02:35:00      0.115     0.035    0.0005
   01/01/2000 02:40:00      0.117     0.035    0.0005
   01/01/2000 02:45:00      0.117     0.035    0.0005
   01/01/2000 02:50:00      0.119     0.036    0.0006
   01/01/2000 02:55:00      0.119     0.036    0.0006
   01/01/2000 03:00:00      0.121     0.036    0.0006
   01/01/2000 03:05:00      0.121     0.037    0.0006
   01/01/2000 03:10:00      0.121     0.037    0.0006
   01/01/2000 03:15:00      0.123     0.037    0.0006
   01/01/2000 03:20:00      0.123     0.037    0.0006
   01/01/2000 03:25:00      0.125     0.038    0.0006
   01/01/2000 03:30:00      0.125     0.038    0.0007
   01/01/2000 03:35:00      0.125     0.038    0.0007
   01/01/2000 03:40:00      0.127     0.038    0.0007
   01/01/2000 03:45:00      0.127     0.038    0.0007
   01/01/2000 03:50:00      0.129     0.039    0.0007
   01/01/2000 03:55:00      0.129     0.039    0.0007
   01/01/2000 04:00:00      0.131     0.039    0.0007
   01/01/2000 04:05:00      0.131     0.040    0.0007
   01/01/2000 04:10:00      0.131     0.040    0.0007
   01/01/2000 04:15:00      0.133     0.040    0.0007
   01/01/2000 04:20:00      0.133     0.040    0.0007
   01/01/2000 04:25:00      0.135     0.041    0.0007
   01/01/2000 04:30:00      0.135     0.041    0.0007
   01/01/2000 04:35:00      0.135     0.041    0.0007
   01/01/2000 04:40:00      0.137     0.041    0.0007
   01/01/2000 04:45:00      0.137     0.041    0.0007
   01/01/2000 04:50:00      0.139     0.042    0.0007
   01/01/2000 04:55:00      0.139     0.042    0.0007
   01/01/2000 05:00:00      0.141     0.042    0.0007
   01/01/2000 05:05:00      0.141     0.043    0.0007
   01/01/2000 05:10:00      0.143     0.043    0.0008
   01/01/2000 05:15:00      0.145     0.044    0.0008
   01/01/2000 05:20:00      0.147     0.044    0.0008
   01/01/2000 05:25:00      0.149     0.045    0.0008
   01/01/2000 05:30:00      0.151     0.045    0.0008
   01/01/2000 05:35:00      0.153     0.046    0.0008
   01/01/2000 05:40:00      0.153     0.046    0.0008
   01/01/2000 05:45:00      0.155     0.047    0.0008
   01/01/2000 05:50:00      0.157     0.047    0.0008
   01/01/2000 05:55:00      0.159     0.048    0.0008
   01/01/2000 06:00:00      0.161     0.049    0.0008
   01/01/2000 06:05:00      0.163     0.049    0.0008
   01/01/2000 06:10:00      0.163     0.049    0.0009
   01/01/2000 06:15:00      0.165     0.050    0.0009
   01/01/2000 06:20:00      0.167     0.050    0.0009
   01/01/2000 06:25:00      0.169     0.051    0.0009
   01/01/2000 06:30:00      0.171     0.052    0.0009
   01/01/2000 06:35:00      0.173     0.052    0.0009
   01/01/2000 06:40:00      0.173     0.052    0.0009
   01/01/2000 06:45:00      0.175     0.053    0.0009
   01/01/2000 06:50:00      0.177     0.053    0.0009
   01/01/2000 06:55:00      0.179     0.054    0.0009
   01/01/2000 07:00:00      0.181     0.055    0.0009
   01/01/2000 07:05:00      0.183     0.055    0.0010
   01/01/2000 07:10:00      0.183     0.055    0.0010
   01/01/2000 07:15:00      0.185     0.056    0.0010
   01/01/2000 07:20:00      0.187     0.057    0.0010
   01/01/2000 07:25:00      0.189     0.057    0.0010
   01/01/2000 07:30:00      0.191     0.058    0.0010
   01/01/2000 07:35:00      0.193     0.058    0.0010
   01/01/2000 07:40:00      0.193     0.058    0.0010
   01/01/2000 07:45:00      0.195     0.059    0.0010
   01/01/2000 07:50:00      0.197     0.060    0.0010
   01/01/2000 07:55:00      0.199     0.060    0.0010
   01/01/2000 08:00:00      0.201     0.061    0.0011
   01/01/2000 08:05:00      0.203     0.061    0.0011
   01/01/2000 08:10:00      0.203     0.061    0.0011
   01/01/2000 08:15:00      0.205     0.062    0.0011
   01/01/2000 08:20:00      0.207     0.063    0.0011
   01/01/2000 08:25:00      0.209     0.063    0.0011
   01/01/2000 08:30:00      0.211     0.064    0.0011
   01/01/2000 08:35:00      0.213     0.064    0.0011
   01/01/2000 08:40:00      0.213     0.064    0.0011
   01/01/2000 08:45:00      0.215     0.065    0.0011
   01/01/2000 08:50:00      0.217     0.066    0.0011
   01/01/2000 08:55:00      0.219     0.066    0.0012
   01/01/2000 09:00:00      0.225     0.068    0.0012
   01/01/2000 09:05:00      0.235     0.068    0.0012
   01/01/2000 09:10:00      0.235     0.071    0.0012
   01/01/2000 09:15:00      0.245     0.074    0.0012
   01/01/2000 09:20:00      0.255     0.077    0.0013
   01/01/2000 09:25:00      0.265     0.080    0.0013
   01/01/2000 09:30:00      0.275     0.083    0.0014
   01/01/2000 09:35:00      0.285     0.083    0.0014
   01/01/2000 09:40:00      0.285     0.086    0.0014
   01/01/2000 09:45:00      0.295     0.089    0.0015
   01/01/2000 09:50:00      0.305     0.092    0.0015
   01/01/2000 09:55:00      0.315     0.095    0.0016
   01/01/2000 10:00:00      0.320     0.097    0.0016
   01/01/2000 10:05:00      0.320     0.097    0.0017
   01/01/2000 10:10:00      0.320     0.097    0.0017
   01/01/2000 10:15:00      0.320     0.097    0.0017
   01/01/2000 10:20:00      0.320     0.097    0.0017
   01/01/2000 10:25:00      0.320     0.097    0.0017
   01/01/2000 10:30:00      0.328     0.099    0.0017
   01/01/2000 10:35:00      0.344     0.099    0.0017
   01/01/2000 10:40:00      0.344     0.104    0.0018
   01/01/2000 10:45:00      0.360     0.109    0.0018
   01/01/2000 10:50:00      0.376     0.110    0.0019
   01/01/2000 10:55:00      0.392     0.109    0.0020
   01/01/2000 11:00:00      0.412     0.107    0.0020
   01/01/2000 11:05:00      0.436     0.107    0.0021
   01/01/2000 11:10:00      0.436     0.106    0.0022
   01/01/2000 11:15:00      0.460     0.105    0.0023
   01/01/2000 11:20:00      0.484     0.104    0.0024
   01/01/2000 11:25:00      0.508     0.103    0.0025
   01/01/2000 11:30:00      0.540     0.102    0.0026
   01/01/2000 11:35:00      0.580     0.102    0.0027
   01/01/2000 11:40:00      0.580     0.102    0.0029
   01/01/2000 11:45:00      0.620     0.101    0.0031
   01/01/2000 11:50:00      0.660     0.100    0.0033
   01/01/2000 11:55:00      0.700     0.100    0.0036
   01/01/2000 12:00:00      0.768     0.099    0.0039
   01/01/2000 12:05:00      0.864     0.099    0.0043
   01/01/2000 12:10:00      0.864     0.099    0.0048
   01/01/2000 12:15:00      0.960     0.099    0.0054
   01/01/2000 12:20:00      1.056     0.098    0.0070
   01/01/2000 12:25:00      1.152     0.098    0.0089
   01/01/2000 12:30:00      2.384     0.098    0.0111
   01/01/2000 12:35:00      4.752     0.098    0.0173
   01/01/2000 12:40:00      4.752     0.098    0.0336
   01/01/2000 12:45:00      7.643     0.101    0.0573
   01/01/2000 12:50:00     13.707     0.105    0.0985
   01/01/2000 12:55:00      9.514     0.111    0.1224
   01/01/2000 13:00:00      1.896     0.110    0.0977
   01/01/2000 13:05:00      1.668     0.110    0.0455
   01/01/2000 13:10:00      1.668     0.103    0.0318
   01/01/2000 13:15:00      1.440     0.099    0.0241
   01/01/2000 13:20:00      1.212     0.097    0.0195
   01/01/2000 13:25:00      0.984     0.095    0.0161
   01/01/2000 13:30:00      0.844     0.093    0.0135
   01/01/2000 13:35:00      0.792     0.093    0.0115
   01/01/2000 13:40:00      0.792     0.092    0.0103
   01/01/2000 13:45:00      0.740     0.091    0.0093
   01/01/2000 13:50:00      0.688     0.090    0.0085
   01/01/2000 13:55:00      0.636     0.089    0.0079
   01/01/2000 14:00:00      0.596     0.088    0.0073
   01/01/2000 14:05:00      0.568     0.088    0.0068
   01/01/2000 14:10:00      0.568     0.088    0.0064
   01/01/2000 14:15:00      0.540     0.087    0.0060
   01/01/2000 14:20:00      0.512     0.086    0.0057
   01/01/2000 14:25:00      0.484     0.086    0.0054
   01/01/2000 14:30:00      0.460     0.085    0.0051
   01/01/2000 14:35:00      0.440     0.085    0.0049
   01/01/2000 14:40:00      0.440     0.085    0.0046
   01/01/2000 14:45:00      0.420     0.084    0.0044
   01/01/2000 14:50:00      0.400     0.084    0.0042
   01/01/2000 14:55:00      0.380     0.083    0.0040
   01/01/2000 15:00:00      0.367     0.083    0.0038
   01/01/2000 15:05:00      0.359     0.083    0.0037
   01/01/2000 15:10:00      0.359     0.082    0.0035
   01/01/2000 15:15:00      0.353     0.082    0.0034
   01/01/2000 15:20:00      0.345     0.082    0.0033
   01/01/2000 15:25:00      0.339     0.081    0.0032
   01/01/2000 15:30:00      0.331     0.081    0.0032
   01/01/2000 15:35:00      0.325     0.081    0.0031
   01/01/2000 15:40:00      0.325     0.080    0.0030
   01/01/2000 15:45:00      0.317     0.080    0.0029
   01/01/2000 15:50:00      0.311     0.080    0.0029
   01/01/2000 15:55:00      0.303     0.079    0.0028
   01/01/2000 16:00:00      0.297     0.079    0.0027
   01/01/2000 16:05:00      0.289     0.079    0.0027
   01/01/2000 16:10:00      0.289     0.079    0.0026
   01/01/2000 16:15:00      0.283     0.078    0.0025
   01/01/2000 16:20:00      0.275     0.078    0.0025
   01/01/2000 16:25:00      0.269     0.078    0.0024
   01/01/2000 16:30:00      0.261     0.077    0.0024
   01/01/2000 16:35:00      0.255     0.077    0.0023
   01/01/2000 16:40:00      0.255     0.077    0.0022
   01/01/2000 16:45:00      0.247     0.077    0.0022
   01/01/2000 16:50:00      0.241     0.077    0.0021
   01/01/2000 16:55:00      0.233     0.076    0.0021
   01/01/2000 17:00:00      0.229     0.076    0.0020
   01/01/2000 17:05:00      0.226     0.076    0.0020
   01/01/2000 17:10:00      0.226     0.076    0.0019
   01/01/2000 17:15:00      0.224     0.075    0.0019
   01/01/2000 17:20:00      0.221     0.075    0.0018
   01/01/2000 17:25:00      0.219     0.075    0.0018
   01/01/2000 17:30:00      0.216     0.075    0.0018
   01/01/2000 17:35:00      0.214     0.075    0.0018
   01/01/2000 17:40:00      0.214     0.074    0.0017
   01/01/2000 17:45:00      0.211     0.074    0.0017
   01/01/2000 17:50:00      0.209     0.074    0.0017
   01/01/2000 17:55:00      0.206     0.074    0.0017
   01/01/2000 18:00:00      0.204     0.074    0.0016
   01/01/2000 18:05:00      0.201     0.074    0.0016
   01/01/2000 18:10:00      0.201     0.073    0.0016
   01/01/2000 18:15:00      0.199     0.073    0.0016
   01/01/2000 18:20:00      0.196     0.073    0.0016
   01/01/2000 18:25:00      0.194     0.073    0.0016
   01/01/2000 18:30:00      0.191     0.072    0.0015
   01/01/2000 18:35:00      0.189     0.072    0.0015
   01/01/2000 18:40:00      0.189     0.072    0.0015
   01/01/2000 18:45:00      0.186     0.072    0.0015
   01/01/2000 18:50:00      0.184     0.072    0.0015
   01/01/2000 18:55:00      0.181     0.072    0.0015
   01/01/2000 19:00:00      0.179     0.071    0.0014
   01/01/2000 19:05:00      0.176     0.071    0.0014
   01/01/2000 19:10:00      0.176     0.071    0.0014
   01/01/2000 19:15:00      0.174     0.071    0.0014
   01/01/2000 19:20:00      0.171     0.071    0.0014
   01/01/2000 19:25:00      0.169     0.071    0.0014
   01/01/2000 19:30:00      0.166     0.070    0.0013
   01/01/2000 19:35:00      0.164     0.070    0.0013
   01/01/2000 19:40:00      0.164     0.070    0.0013
   01/01/2000 19:45:00      0.161     0.064    0.0013
   01/01/2000 19:50:00      0.159     0.048    0.0013
   01/01/2000 19:55:00      0.156     0.047    0.0013
   01/01/2000 20:00:00      0.154     0.047    0.0013
   01/01/2000 20:05:00      0.154     0.047    0.0012
   01/01/2000 20:10:00      0.151     0.046    0.0012
   01/01/2000 20:15:00      0.149     0.045    0.0012
   01/01/2000 20:20:00      0.146     0.044    0.0012
   01/01/2000 20:25:00      0.144     0.044    0.0012
   01/01/2000 20:30:00      0.141     0.044    0.0012
   01/01/2000 20:35:00      0.141     0.043    0.0011
   01/01/2000 20:40:00      0.139     0.042    0.0011
   01/01/2000 20:45:00      0.136     0.041    0.0011
   01/01/2000 20:50:00      0.134     0.041    0.0011
   01/01/2000 20:55:00      0.131     0.040    0.0011
   01/01/2000 21:00:00      0.130     0.040    0.0011
   01/01/2000 21:05:00      0.130     0.039    0.0011
   01/01/2000 21:10:00      0.129     0.039    0.0010
   01/01/2000 21:15:00      0.129     0.039    0.0010
   01/01/2000 21:20:00      0.128     0.039    0.0010
   01/01/2000 21:25:00      0.128     0.039    0.0010
   01/01/2000 21:30:00      0.127     0.039    0.0010
   01/01/2000 21:35:00      0.127     0.038    0.0010
   01/01/2000 21:40:00      0.127     0.038    0.0010
   01/01/2000 21:45:00      0.126     0.038    0.0010
   01/01/2000 21:50:00      0.126     0.038    0.0010
   01/01/2000 21:55:00      0.125     0.038    0.0010
   01/01/2000 22:00:00      0.125     0.038    0.0010
   01/01/2000 22:05:00      0.125     0.038    0.0010
   01/01/2000 22:10:00      0.124     0.037    0.0010
   01/01/2000 22:15:00      0.124     0.037    0.0010
   01/01/2000 22:20:00      0.123     0.037    0.0010
   01/01/2000 22:25:00      0.123     0.037    0.0010
   01/01/2000 22:30:00      0.122     0.037    0.0010
   01/01/2000 22:35:00      0.122     0.037    0.0010
   01/01/2000 22:40:00      0.122     0.037    0.0010
   01/01/2000 22:45:00      0.121     0.037    0.0010
   01/01/2000 22:50:00      0.121     0.037    0.0009
   01/01/2000 22:55:00      0.120     0.036    0.0009
   01/01/2000 23:00:00      0.120     0.036    0.0009
   01/01/2000 23:05:00      0.120     0.036    0.0009
   01/01/2000 23:10:00      0.119     0.036    0.0009
   01/01/2000 23:15:00      0.119     0.036    0.0009
   01/01/2000 23:20:00      0.118     0.036    0.0009
   01/01/2000 23:25:00      0.118     0.036    0.0009
   01/01/2000 23:30:00      0.117     0.036    0.0009
   01/01/2000 23:35:00      0.117     0.035    0.0009
   01/01/2000 23:40:00      0.117     0.035    0.0009
   01/01/2000 23:45:00      0.116     0.035    0.0009
   01/01/2000 23:50:00      0.116     0.035    0.0009
   01/01/2000 23:55:00      0.115     0.035    0.0009
   01/02/2000 00:00:00      0.115     0.035    0.0009
  
  
  ************
  Node Results
  ************
  
  <<< Node J3 >>>
  ----------------------------------------------------------------
                           Inflow  Flooding     Depth      Head
  Date        Time            CMS       CMS    meters    meters
  ----------------------------------------------------------------
   01/01/2000 00:05:00      0.000     0.000     0.000    93.000
   01/01/2000 00:10:00      0.000     0.000     0.000    93.000
   01/01/2000 00:15:00      0.000     0.000     0.000    93.000
   01/01/2000 00:20:00      0.000     0.000     0.000    93.000
   01/01/2000 00:25:00      0.000     0.000     0.000    93.000
   01/01/2000 00:30:00      0.000     0.000     0.000    93.000
   01/01/2000 00:35:00      0.000     0.000     0.000    93.000
   01/01/2000 00:40:00      0.000     0.000     0.000    93.000
   01/01/2000 00:45:00      0.000     0.000     0.000    93.000
   01/01/2000 00:50:00      0.000     0.000     0.000    93.000
   01/01/2000 00:55:00      0.000     0.000     0.000    93.000
   01/01/2000 01:00:00      0.000     0.000     0.000    93.000
   01/01/2000 01:05:00      0.000     0.000     0.001    93.001
   01/01/2000 01:10:00      0.000     0.000     0.002    93.002
   01/01/2000 01:15:00      0.000     0.000     0.003    93.003
   01/01/2000 01:20:00      0.000     0.000     0.004    93.004
   01/01/2000 01:25:00      0.000     0.000     0.004    93.004
   01/01/2000 01:30:00      0.000     0.000     0.005    93.005
   01/01/2000 01:35:00      0.000     0.000     0.005    93.005
   01/01/2000 01:40:00      0.000     0.000     0.005    93.005
   01/01/2000 01:45:00      0.000     0.000     0.006    93.006
   01/01/2000 01:50:00      0.000     0.000     0.006    93.006
   01/01/2000 01:55:00      0.000     0.000     0.006    93.006
   01/01/2000 02:00:00      0.000     0.000     0.006    93.006
   01/01/2000 02:05:00      0.000     0.000     0.007    93.007
   01/01/2000 02:10:00      0.000     0.000     0.008    93.008
   01/01/2000 02:15:00      0.000     0.000     0.009    93.009
   01/01/2000 02:20:00      0.000     0.000     0.009    93.009
   01/01/2000 02:25:00      0.000     0.000     0.010    93.010
   01/01/2000 02:30:00      0.000     0.000     0.011    93.011
   01/01/2000 02:35:00      0.000     0.000     0.011    93.011
   01/01/2000 02:40:00      0.000     0.000     0.011    93.011
   01/01/2000 02:45:00      0.001     0.000     0.012    93.012
   01/01/2000 02:50:00      0.001     0.000     0.012    93.012
   01/01/2000 02:55:00      0.001     0.000     0.012    93.012
   01/01/2000 03:00:00      0.001     0.000     0.012    93.012
   01/01/2000 03:05:00      0.001     0.000     0.012    93.012
   01/01/2000 03:10:00      0.001     0.000     0.013    93.013
   01/01/2000 03:15:00      0.001     0.000     0.013    93.013
   01/01/2000 03:20:00      0.001     0.000     0.013    93.013
   01/01/2000 03:25:00      0.001     0.000     0.013    93.013
   01/01/2000 03:30:00      0.001     0.000     0.013    93.013
   01/01/2000 03:35:00      0.001     0.000     0.013    93.013
   01/01/2000 03:40:00      0.001     0.000     0.013    93.013
   01/01/2000 03:45:00      0.001     0.000     0.013    93.013
   01/01/2000 03:50:00      0.001     0.000     0.013    93.013
   01/01/2000 03:55:00      0.001     0.000     0.013    93.013
   01/01/2000 04:00:00      0.001     0.000     0.013    93.013
   01/01/2000 04:05:00      0.001     0.000     0.013    93.013
   01/01/2000 04:10:00      0.001     0.000     0.013    93.013
   01/01/2000 04:15:00      0.001     0.000     0.013    93.013
   01/01/2000 04:20:00      0.001     0.000     0.013    93.013
   01/01/2000 04:25:00      0.001     0.000     0.013    93.013
   01/01/2000 04:30:00      0.001     0.000     0.013    93.013
   01/01/2000 04:35:00      0.001     0.000     0.014    93.014
   01/01/2000 04:40:00      0.001     0.000     0.014    93.014
   01/01/2000 04:45:00      0.001     0.000     0.014    93.014
   01/01/2000 04:50:00      0.001     0.000     0.014    93.014
   01/01/2000 04:55:00      0.001     0.000     0.014    93.014
   01/01/2000 05:00:00      0.001     0.000     0.014    93.014
   01/01/2000 05:05:00      0.001     0.000     0.014    93.014
   01/01/2000 05:10:00      0.001     0.000     0.014    93.014
   01/01/2000 05:15:00      0.001     0.000     0.014    93.014
   01/01/2000 05:20:00      0.001     0.000     0.014    93.014
   01/01/2000 05:25:00      0.001     0.000     0.014    93.014
   01/01/2000 05:30:00      0.001     0.000     0.014    93.014
   01/01/2000 05:35:00      0.001     0.000     0.014    93.014
   01/01/2000 05:40:00      0.001     0.000     0.014    93.014
   01/01/2000 05:45:00      0.001     0.000     0.014    93.014
   01/01/2000 05:50:00      0.001     0.000     0.014    93.014
   01/01/2000 05:55:00      0.001     0.000     0.014    93.014
   01/01/2000 06:00:00      0.001     0.000     0.015    93.015
   01/01/2000 06:05:00      0.001     0.000     0.015    93.015
   01/01/2000 06:10:00      0.001     0.000     0.015    93.015
   01/01/2000 06:15:00      0.001     0.000     0.015    93.015
   01/01/2000 06:20:00      0.001     0.000     0.015    93.015
   01/01/2000 06:25:00      0.001     0.000     0.015    93.015
   01/01/2000 06:30:00      0.001     0.000     0.015    93.015
   01/01/2000 06:35:00      0.001     0.000     0.015    93.015
   01/01/2000 06:40:00      0.001     0.000     0.015    93.015
   01/01/2000 06:45:00      0.001     0.000     0.015    93.015
   01/01/2000 06:50:00      0.001     0.000     0.015    93.015
   01/01/2000 06:55:00      0.001     0.000     0.015    93.015
   01/01/2000 07:00:00      0.001     0.000     0.015    93.015
   01/01/2000 07:05:00      0.001     0.000     0.015    93.015
   01/01/2000 07:10:00      0.001     0.000     0.015    93.015
   01/01/2000 07:15:00      0.001     0.000     0.016    93.016
   01/01/2000 07:20:00      0.001     0.000     0.016    93.016
   01/01/2000 07:25:00      0.001     0.000     0.016    93.016
   01/01/2000 07:30:00      0.001     0.000     0.016    93.016
   01/01/2000 07:35:00      0.001     0.000     0.016    93.016
   01/01/2000 07:40:00      0.001     0.000     0.016    93.016
   01/01/2000 07:45:00      0.001     0.000     0.016    93.016
   01/01/2000 07:50:00      0.001     0.000     0.016    93.016
   01/01/2000 07:55:00      0.001     0.000     0.016    93.016
   01/01/2000 08:00:00      0.001     0.000     0.016    93.016
   01/01/2000 08:05:00      0.001     0.000     0.016    93.016
   01/01/2000 08:10:00      0.001     0.000     0.016    93.016
   01/01/2000 08:15:00      0.001     0.000     0.016    93.016
   01/01/2000 08:20:00      0.001     0.000     0.016    93.016
   01/01/2000 08:25:00      0.001     0.000     0.016    93.016
   01/01/2000 08:30:00      0.001     0.000     0.017    93.017
   01/01/2000 08:35:00      0.001     0.000     0.017    93.017
   01/01/2000 08:40:00      0.001     0.000     0.017    93.017
   01/01/2000 08:45:00      0.001     0.000     0.017    93.017
   01/01/2000 08:50:00      0.001     0.000     0.017    93.017
   01/01/2000 08:55:00      0.001     0.000     0.017    93.017
   01/01/2000 09:00:00      0.001     0.000     0.017    93.017
   01/01/2000 09:05:00      0.001     0.000     0.017    93.017
   01/01/2000 09:10:00      0.001     0.000     0.017    93.017
   01/01/2000 09:15:00      0.001     0.000     0.017    93.017
   01/01/2000 09:20:00      0.001     0.000     0.018    93.018
   01/01/2000 09:25:00      0.001     0.000     0.018    93.018
   01/01/2000 09:30:00      0.001     0.000     0.018    93.018
   01/01/2000 09:35:00      0.001     0.000     0.018    93.018
   01/01/2000 09:40:00      0.001     0.000     0.019    93.019
   01/01/2000 09:45:00      0.001     0.000     0.019    93.019
   01/01/2000 09:50:00      0.002     0.000     0.019    93.019
   01/01/2000 09:55:00      0.002     0.000     0.019    93.019
   01/01/2000 10:00:00      0.002     0.000     0.020    93.020
   01/01/2000 10:05:00      0.002     0.000     0.020    93.020
   01/01/2000 10:10:00      0.002     0.000     0.020    93.020
   01/01/2000 10:15:00      0.002     0.000     0.020    93.020
   01/01/2000 10:20:00      0.002     0.000     0.020    93.020
   01/01/2000 10:25:00      0.002     0.000     0.020    93.020
   01/01/2000 10:30:00      0.002     0.000     0.020    93.020
   01/01/2000 10:35:00      0.002     0.000     0.020    93.020
   01/01/2000 10:40:00      0.002     0.000     0.021    93.021
   01/01/2000 10:45:00      0.002     0.000     0.021    93.021
   01/01/2000 10:50:00      0.002     0.000     0.021    93.021
   01/01/2000 10:55:00      0.002     0.000     0.021    93.021
   01/01/2000 11:00:00      0.002     0.000     0.022    93.022
   01/01/2000 11:05:00      0.002     0.000     0.022    93.022
   01/01/2000 11:10:00      0.002     0.000     0.023    93.023
   01/01/2000 11:15:00      0.002     0.000     0.023    93.023
   01/01/2000 11:20:00      0.002     0.000     0.023    93.023
   01/01/2000 11:25:00      0.002     0.000     0.024    93.024
   01/01/2000 11:30:00      0.003     0.000     0.024    93.024
   01/01/2000 11:35:00      0.003     0.000     0.025    93.025
   01/01/2000 11:40:00      0.003     0.000     0.026    93.026
   01/01/2000 11:45:00      0.003     0.000     0.026    93.026
   01/01/2000 11:50:00      0.003     0.000     0.027    93.027
   01/01/2000 11:55:00      0.004     0.000     0.028    93.028
   01/01/2000 12:00:00      0.004     0.000     0.029    93.029
   01/01/2000 12:05:00      0.004     0.000     0.031    93.031
   01/01/2000 12:10:00      0.005     0.000     0.032    93.032
   01/01/2000 12:15:00      0.005     0.000     0.034    93.034
   01/01/2000 12:20:00      0.007     0.000     0.038    93.038
   01/01/2000 12:25:00      0.009     0.000     0.043    93.043
   01/01/2000 12:30:00      0.010     0.000     0.046    93.046
   01/01/2000 12:35:00      0.016     0.000     0.057    93.057
   01/01/2000 12:40:00      0.030     0.000     0.077    93.077
   01/01/2000 12:45:00      0.052     0.000     0.099    93.099
   01/01/2000 12:50:00      0.088     0.000     0.127    93.127
   01/01/2000 12:55:00      0.126     0.000     0.149    93.149
   01/01/2000 13:00:00      0.108     0.000     0.139    93.139
   01/01/2000 13:05:00      0.056     0.000     0.103    93.103
   01/01/2000 13:10:00      0.035     0.000     0.082    93.082
   01/01/2000 13:15:00      0.025     0.000     0.071    93.071
   01/01/2000 13:20:00      0.020     0.000     0.064    93.064
   01/01/2000 13:25:00      0.017     0.000     0.058    93.058
   01/01/2000 13:30:00      0.014     0.000     0.053    93.053
   01/01/2000 13:35:00      0.012     0.000     0.050    93.050
   01/01/2000 13:40:00      0.011     0.000     0.047    93.047
   01/01/2000 13:45:00      0.010     0.000     0.045    93.045
   01/01/2000 13:50:00      0.009     0.000     0.043    93.043
   01/01/2000 13:55:00      0.008     0.000     0.041    93.041
   01/01/2000 14:00:00      0.007     0.000     0.040    93.040
   01/01/2000 14:05:00      0.007     0.000     0.039    93.039
   01/01/2000 14:10:00      0.006     0.000     0.037    93.037
   01/01/2000 14:15:00      0.006     0.000     0.036    93.036
   01/01/2000 14:20:00      0.006     0.000     0.035    93.035
   01/01/2000 14:25:00      0.005     0.000     0.035    93.035
   01/01/2000 14:30:00      0.005     0.000     0.034    93.034
   01/01/2000 14:35:00      0.005     0.000     0.033    93.033
   01/01/2000 14:40:00      0.005     0.000     0.032    93.032
   01/01/2000 14:45:00      0.004     0.000     0.031    93.031
   01/01/2000 14:50:00      0.004     0.000     0.031    93.031
   01/01/2000 14:55:00      0.004     0.000     0.030    93.030
   01/01/2000 15:00:00      0.004     0.000     0.029    93.029
   01/01/2000 15:05:00      0.004     0.000     0.029    93.029
   01/01/2000 15:10:00      0.004     0.000     0.028    93.028
   01/01/2000 15:15:00      0.003     0.000     0.028    93.028
   01/01/2000 15:20:00      0.003     0.000     0.028    93.028
   01/01/2000 15:25:00      0.003     0.000     0.027    93.027
   01/01/2000 15:30:00      0.003     0.000     0.027    93.027
   01/01/2000 15:35:00      0.003     0.000     0.027    93.027
   01/01/2000 15:40:00      0.003     0.000     0.026    93.026
   01/01/2000 15:45:00      0.003     0.000     0.026    93.026
   01/01/2000 15:50:00      0.003     0.000     0.026    93.026
   01/01/2000 15:55:00      0.003     0.000     0.025    93.025
   01/01/2000 16:00:00      0.003     0.000     0.025    93.025
   01/01/2000 16:05:00      0.003     0.000     0.025    93.025
   01/01/2000 16:10:00      0.003     0.000     0.025    93.025
   01/01/2000 16:15:00      0.003     0.000     0.024    93.024
   01/01/2000 16:20:00      0.002     0.000     0.024    93.024
   01/01/2000 16:25:00      0.002     0.000     0.024    93.024
   01/01/2000 16:30:00      0.002     0.000     0.023    93.023
   01/01/2000 16:35:00      0.002     0.000     0.023    93.023
   01/01/2000 16:40:00      0.002     0.000     0.023    93.023
   01/01/2000 16:45:00      0.002     0.000     0.023    93.023
   01/01/2000 16:50:00      0.002     0.000     0.022    93.022
   01/01/2000 16:55:00      0.002     0.000     0.022    93.022
   01/01/2000 17:00:00      0.002     0.000     0.022    93.022
   01/01/2000 17:05:00      0.002     0.000     0.022    93.022
   01/01/2000 17:10:00      0.002     0.000     0.021    93.021
   01/01/2000 17:15:00      0.002     0.000     0.021    93.021
   01/01/2000 17:20:00      0.002     0.000     0.021    93.021
   01/01/2000 17:25:00      0.002     0.000     0.021    93.021
   01/01/2000 17:30:00      0.002     0.000     0.021    93.021
   01/01/2000 17:35:00      0.002     0.000     0.020    93.020
   01/01/2000 17:40:00      0.002     0.000     0.020    93.020
   01/01/2000 17:45:00      0.002     0.000     0.020    93.020
   01/01/2000 17:50:00      0.002     0.000     0.020    93.020
   01/01/2000 17:55:00      0.002     0.000     0.020    93.020
   01/01/2000 18:00:00      0.002     0.000     0.020    93.020
   01/01/2000 18:05:00      0.002     0.000     0.020    93.020
   01/01/2000 18:10:00      0.002     0.000     0.020    93.020
   01/01/2000 18:15:00      0.002     0.000     0.020    93.020
   01/01/2000 18:20:00      0.002     0.000     0.019    93.019
   01/01/2000 18:25:00      0.002     0.000     0.019    93.019
   01/01/2000 18:30:00      0.002     0.000     0.019    93.019
   01/01/2000 18:35:00      0.002     0.000     0.019    93.019
   01/01/2000 18:40:00      0.002     0.000     0.019    93.019
   01/01/2000 18:45:00      0.001     0.000     0.019    93.019
   01/01/2000 18:50:00      0.001     0.000     0.019    93.019
   01/01/2000 18:55:00      0.001     0.000     0.019    93.019
   01/01/2000 19:00:00      0.001     0.000     0.019    93.019
   01/01/2000 19:05:00      0.001     0.000     0.019    93.019
   01/01/2000 19:10:00      0.001     0.000     0.018    93.018
   01/01/2000 19:15:00      0.001     0.000     0.018    93.018
   01/01/2000 19:20:00      0.001     0.000     0.018    93.018
   01/01/2000 19:25:00      0.001     0.000     0.018    93.018
   01/01/2000 19:30:00      0.001     0.000     0.018    93.018
   01/01/2000 19:35:00      0.001     0.000     0.018    93.018
   01/01/2000 19:40:00      0.001     0.000     0.018    93.018
   01/01/2000 19:45:00      0.001     0.000     0.018    93.018
   01/01/2000 19:50:00      0.001     0.000     0.018    93.018
   01/01/2000 19:55:00      0.001     0.000     0.018    93.018
   01/01/2000 20:00:00      0.001     0.000     0.018    93.018
   01/01/2000 20:05:00      0.001     0.000     0.017    93.017
   01/01/2000 20:10:00      0.001     0.000     0.017    93.017
   01/01/2000 20:15:00      0.001     0.000     0.017    93.017
   01/01/2000 20:20:00      0.001     0.000     0.017    93.017
   01/01/2000 20:25:00      0.001     0.000     0.017    93.017
   01/01/2000 20:30:00      0.001     0.000     0.017    93.017
   01/01/2000 20:35:00      0.001     0.000     0.017    93.017
   01/01/2000 20:40:00      0.001     0.000     0.017    93.017
   01/01/2000 20:45:00      0.001     0.000     0.017    93.017
   01/01/2000 20:50:00      0.001     0.000     0.016    93.016
   01/01/2000 20:55:00      0.001     0.000     0.016    93.016
   01/01/2000 21:00:00      0.001     0.000     0.016    93.016
   01/01/2000 21:05:00      0.001     0.000     0.016    93.016
   01/01/2000 21:10:00      0.001     0.000     0.016    93.016
   01/01/2000 21:15:00      0.001     0.000     0.016    93.016
   01/01/2000 21:20:00      0.001     0.000     0.016    93.016
   01/01/2000 21:25:00      0.001     0.000     0.016    93.016
   01/01/2000 21:30:00      0.001     0.000     0.016    93.016
   01/01/2000 21:35:00      0.001     0.000     0.016    93.016
   01/01/2000 21:40:00      0.001     0.000     0.016    93.016
   01/01/2000 21:45:00      0.001     0.000     0.016    93.016
   01/01/2000 21:50:00      0.001     0.000     0.016    93.016
   01/01/2000 21:55:00      0.001     0.000     0.016    93.016
   01/01/2000 22:00:00      0.001     0.000     0.016    93.016
   01/01/2000 22:05:00      0.001     0.000     0.016    93.016
   01/01/2000 22:10:00      0.001     0.000     0.016    93.016
   01/01/2000 22:15:00      0.001     0.000     0.016    93.016
   01/01/2000 22:20:00      0.001     0.000     0.016    93.016
   01/01/2000 22:25:00      0.001     0.000     0.015    93.015
   01/01/2000 22:30:00      0.001     0.000     0.015    93.015
   01/01/2000 22:35:00      0.001     0.000     0.015    93.015
   01/01/2000 22:40:00      0.001     0.000     0.015    93.015
   01/01/2000 22:45:00      0.001     0.000     0.015    93.015
   01/01/2000 22:50:00      0.001     0.000     0.015    93.015
   01/01/2000 22:55:00      0.001     0.000     0.015    93.015
   01/01/2000 23:00:00      0.001     0.000     0.015    93.015
   01/01/2000 23:05:00      0.001     0.000     0.015    93.015
   01/01/2000 23:10:00      0.001     0.000     0.015    93.015
   01/01/2000 23:15:00      0.001     0.000     0.015    93.015
   01/01/2000 23:20:00      0.001     0.000     0.015    93.015
   01/01/2000 23:25:00      0.001     0.000     0.015    93.015
   01/01/2000 23:30:00      0.001     0.000     0.015    93.015
   01/01/2000 23:35:00      0.001     0.000     0.015    93.015
   01/01/2000 23:40:00      0.001     0.000     0.015    93.015
   01/01/2000 23:45:00      0.001     0.000     0.015    93.015
   01/01/2000 23:50:00      0.001     0.000     0.015    93.015
   01/01/2000 23:55:00      0.001     0.000     0.015    93.015
   01/02/2000 00:00:00      0.001     0.000     0.015    93.015
  
  
  <<< Node J1 >>>
  ----------------------------------------------------------------
                           Inflow  Flooding     Depth      Head
  Date        Time            CMS       CMS    meters    meters
  ----------------------------------------------------------------
   01/01/2000 00:05:00      0.000     0.000     0.000    96.000
   01/01/2000 00:10:00      0.000     0.000     0.000    96.000
   01/01/2000 00:15:00      0.000     0.000     0.000    96.000
   01/01/2000 00:20:00      0.000     0.000     0.000    96.000
   01/01/2000 00:25:00      0.000     0.000     0.000    96.000
   01/01/2000 00:30:00      0.000     0.000     0.000    96.000
   01/01/2000 00:35:00      0.000     0.000     0.000    96.000
   01/01/2000 00:40:00      0.000     0.000     0.000    96.000
   01/01/2000 00:45:00      0.000     0.000     0.000    96.000
   01/01/2000 00:50:00      0.000     0.000     0.000    96.000
   01/01/2000 00:55:00      0.000     0.000     0.000    96.000
   01/01/2000 01:00:00      0.000     0.000     0.000    96.000
   01/01/2000 01:05:00      0.000     0.000     0.001    96.001
   01/01/2000 01:10:00      0.000     0.000     0.001    96.001
   01/01/2000 01:15:00      0.000     0.000     0.002    96.002
   01/01/2000 01:20:00      0.000     0.000     0.002    96.002
   01/01/2000 01:25:00      0.000     0.000     0.002    96.002
   01/01/2000 01:30:00      0.000     0.000     0.003    96.003
   01/01/2000 01:35:00      0.000     0.000     0.003    96.003
   01/01/2000 01:40:00      0.000     0.000     0.004    96.004
   01/01/2000 01:45:00      0.000     0.000     0.004    96.004
   01/01/2000 01:50:00      0.000     0.000     0.005    96.005
   01/01/2000 01:55:00      0.000     0.000     0.005    96.005
   01/01/2000 02:00:00      0.000     0.000     0.006    96.006
   01/01/2000 02:05:00      0.000     0.000     0.006    96.006
   01/01/2000 02:10:00      0.000     0.000     0.007    96.007
   01/01/2000 02:15:00      0.000     0.000     0.007    96.007
   01/01/2000 02:20:00      0.001     0.000     0.008    96.008
   01/01/2000 02:25:00      0.001     0.000     0.008    96.008
   01/01/2000 02:30:00      0.001     0.000     0.008    96.008
   01/01/2000 02:35:00      0.001     0.000     0.008    96.008
   01/01/2000 02:40:00      0.001     0.000     0.009    96.009
   01/01/2000 02:45:00      0.001     0.000     0.009    96.009
   01/01/2000 02:50:00      0.001     0.000     0.009    96.009
   01/01/2000 02:55:00      0.001     0.000     0.009    96.009
   01/01/2000 03:00:00      0.001     0.000     0.009    96.009
   01/01/2000 03:05:00      0.001     0.000     0.010    96.010
   01/01/2000 03:10:00      0.001     0.000     0.010    96.010
   01/01/2000 03:15:00      0.001     0.000     0.010    96.010
   01/01/2000 03:20:00      0.001     0.000     0.010    96.010
   01/01/2000 03:25:00      0.001     0.000     0.010    96.010
   01/01/2000 03:30:00      0.001     0.000     0.010    96.010
   01/01/2000 03:35:00      0.001     0.000     0.010    96.010
   01/01/2000 03:40:00      0.001     0.000     0.010    96.010
   01/01/2000 03:45:00      0.001     0.000     0.010    96.010
   01/01/2000 03:50:00      0.001     0.000     0.010    96.010
   01/01/2000 03:55:00      0.001     0.000     0.010    96.010
   01/01/2000 04:00:00      0.001     0.000     0.011    96.011
   01/01/2000 04:05:00      0.001     0.000     0.011    96.011
   01/01/2000 04:10:00      0.001     0.000     0.011    96.011
   01/01/2000 04:15:00      0.001     0.000     0.011    96.011
   01/01/2000 04:20:00      0.001     0.000     0.011    96.011
   01/01/2000 04:25:00      0.001     0.000     0.011    96.011
   01/01/2000 04:30:00      0.001     0.000     0.011    96.011
   01/01/2000 04:35:00      0.001     0.000     0.011    96.011
   01/01/2000 04:40:00      0.001     0.000     0.011    96.011
   01/01/2000 04:45:00      0.001     0.000     0.011    96.011
   01/01/2000 04:50:00      0.001     0.000     0.011    96.011
   01/01/2000 04:55:00      0.001     0.000     0.011    96.011
   01/01/2000 05:00:00      0.001     0.000     0.011    96.011
   01/01/2000 05:05:00      0.001     0.000     0.011    96.011
   01/01/2000 05:10:00      0.001     0.000     0.011    96.011
   01/01/2000 05:15:00      0.001     0.000     0.011    96.011
   01/01/2000 05:20:00      0.001     0.000     0.011    96.011
   01/01/2000 05:25:00      0.001     0.000     0.011    96.011
   01/01/2000 05:30:00      0.001     0.000     0.011    96.011
   01/01/2000 05:35:00      0.001     0.000     0.011    96.011
   01/01/2000 05:40:00      0.001     0.000     0.011    96.011
   01/01/2000 05:45:00      0.001     0.000     0.011    96.011
[...]
   01/01/2000 22:35:00      0.001     0.243     0.025     0.007
   01/01/2000 22:40:00      0.001     0.242     0.025     0.007
   01/01/2000 22:45:00      0.001     0.241     0.025     0.007
   01/01/2000 22:50:00      0.001     0.240     0.025     0.007
   01/01/2000 22:55:00      0.001     0.239     0.025     0.007
   01/01/2000 23:00:00      0.001     0.239     0.025     0.007
   01/01/2000 23:05:00      0.001     0.238     0.025     0.006
   01/01/2000 23:10:00      0.001     0.237     0.024     0.006
   01/01/2000 23:15:00      0.001     0.236     0.024     0.006
   01/01/2000 23:20:00      0.001     0.236     0.024     0.006
   01/01/2000 23:25:00      0.001     0.235     0.024     0.006
   01/01/2000 23:30:00      0.001     0.234     0.024     0.006
   01/01/2000 23:35:00      0.001     0.234     0.024     0.006
   01/01/2000 23:40:00      0.001     0.233     0.024     0.006
   01/01/2000 23:45:00      0.001     0.233     0.024     0.006
   01/01/2000 23:50:00      0.001     0.232     0.024     0.006
   01/01/2000 23:55:00      0.001     0.231     0.024     0.006
   01/02/2000 00:00:00      0.001     0.231     0.024     0.006
  
  
  <<< Link C1 >>>
  ----------------------------------------------------------------
                             Flow  Velocity     Depth  Capacity/
  Date        Time            CMS     m/sec    meters   Setting 
  ----------------------------------------------------------------
   01/01/2000 00:05:00      0.000     0.000     0.000     0.000
   01/01/2000 00:10:00      0.000     0.000     0.000     0.000
   01/01/2000 00:15:00      0.000     0.000     0.000     0.000
   01/01/2000 00:20:00      0.000     0.000     0.000     0.000
   01/01/2000 00:25:00      0.000     0.000     0.000     0.000
   01/01/2000 00:30:00      0.000     0.000     0.000     0.000
   01/01/2000 00:35:00      0.000     0.000     0.000     0.000
   01/01/2000 00:40:00      0.000     0.000     0.000     0.000
   01/01/2000 00:45:00      0.000     0.000     0.000     0.000
   01/01/2000 00:50:00      0.000     0.000     0.000     0.000
   01/01/2000 00:55:00      0.000     0.000     0.000     0.000
   01/01/2000 01:00:00      0.000     0.000     0.000     0.000
   01/01/2000 01:05:00      0.000     0.000     0.000     0.000
   01/01/2000 01:10:00      0.000     0.000     0.001     0.000
   01/01/2000 01:15:00      0.000     0.000     0.001     0.000
   01/01/2000 01:20:00      0.000     0.000     0.001     0.000
   01/01/2000 01:25:00      0.000     0.000     0.002     0.000
   01/01/2000 01:30:00      0.000     0.000     0.002     0.000
   01/01/2000 01:35:00      0.000     0.000     0.003     0.000
   01/01/2000 01:40:00      0.000     0.000     0.003     0.000
   01/01/2000 01:45:00      0.000     0.142     0.003     0.001
   01/01/2000 01:50:00      0.000     0.174     0.004     0.001
   01/01/2000 01:55:00      0.000     0.217     0.005     0.001
   01/01/2000 02:00:00      0.000     0.265     0.005     0.001
   01/01/2000 02:05:00      0.000     0.313     0.006     0.001
   01/01/2000 02:10:00      0.000     0.359     0.006     0.001
   01/01/2000 02:15:00      0.000     0.400     0.007     0.001
   01/01/2000 02:20:00      0.000     0.436     0.007     0.001
   01/01/2000 02:25:00      0.000     0.468     0.008     0.001
   01/01/2000 02:30:00      0.001     0.495     0.008     0.001
   01/01/2000 02:35:00      0.001     0.520     0.008     0.001
   01/01/2000 02:40:00      0.001     0.541     0.009     0.002
   01/01/2000 02:45:00      0.001     0.560     0.009     0.002
   01/01/2000 02:50:00      0.001     0.576     0.009     0.002
   01/01/2000 02:55:00      0.001     0.590     0.009     0.002
   01/01/2000 03:00:00      0.001     0.603     0.009     0.002
   01/01/2000 03:05:00      0.001     0.614     0.010     0.002
   01/01/2000 03:10:00      0.001     0.624     0.010     0.002
   01/01/2000 03:15:00      0.001     0.632     0.010     0.002
   01/01/2000 03:20:00      0.001     0.640     0.010     0.002
   01/01/2000 03:25:00      0.001     0.647     0.010     0.002
   01/01/2000 03:30:00      0.001     0.652     0.010     0.002
   01/01/2000 03:35:00      0.001     0.658     0.010     0.002
   01/01/2000 03:40:00      0.001     0.663     0.010     0.002
   01/01/2000 03:45:00      0.001     0.668     0.010     0.002
   01/01/2000 03:50:00      0.001     0.672     0.010     0.002
   01/01/2000 03:55:00      0.001     0.675     0.010     0.002
   01/01/2000 04:00:00      0.001     0.679     0.010     0.002
   01/01/2000 04:05:00      0.001     0.682     0.011     0.002
   01/01/2000 04:10:00      0.001     0.686     0.011     0.002
   01/01/2000 04:15:00      0.001     0.688     0.011     0.002
   01/01/2000 04:20:00      0.001     0.691     0.011     0.002
   01/01/2000 04:25:00      0.001     0.694     0.011     0.002
   01/01/2000 04:30:00      0.001     0.696     0.011     0.002
   01/01/2000 04:35:00      0.001     0.699     0.011     0.002
   01/01/2000 04:40:00      0.001     0.701     0.011     0.002
   01/01/2000 04:45:00      0.001     0.703     0.011     0.002
   01/01/2000 04:50:00      0.001     0.705     0.011     0.002
   01/01/2000 04:55:00      0.001     0.707     0.011     0.002
   01/01/2000 05:00:00      0.001     0.710     0.011     0.002
   01/01/2000 05:05:00      0.001     0.711     0.011     0.002
   01/01/2000 05:10:00      0.001     0.713     0.011     0.002
   01/01/2000 05:15:00      0.001     0.715     0.011     0.002
   01/01/2000 05:20:00      0.001     0.718     0.011     0.002
   01/01/2000 05:25:00      0.001     0.720     0.011     0.002
   01/01/2000 05:30:00      0.001     0.723     0.011     0.002
   01/01/2000 05:35:00      0.001     0.725     0.011     0.002
   01/01/2000 05:40:00      0.001     0.728     0.011     0.002
   01/01/2000 05:45:00      0.001     0.731     0.011     0.002
   01/01/2000 05:50:00      0.001     0.734     0.011     0.002
   01/01/2000 05:55:00      0.001     0.738     0.012     0.002
   01/01/2000 06:00:00      0.001     0.741     0.012     0.002
   01/01/2000 06:05:00      0.001     0.744     0.012     0.002
   01/01/2000 06:10:00      0.001     0.747     0.012     0.002
   01/01/2000 06:15:00      0.001     0.750     0.012     0.002
   01/01/2000 06:20:00      0.001     0.754     0.012     0.002
   01/01/2000 06:25:00      0.001     0.757     0.012     0.002
   01/01/2000 06:30:00      0.001     0.760     0.012     0.002
   01/01/2000 06:35:00      0.001     0.763     0.012     0.002
   01/01/2000 06:40:00      0.001     0.767     0.012     0.002
   01/01/2000 06:45:00      0.001     0.770     0.012     0.002
   01/01/2000 06:50:00      0.001     0.773     0.012     0.002
   01/01/2000 06:55:00      0.001     0.776     0.012     0.002
   01/01/2000 07:00:00      0.001     0.779     0.012     0.002
   01/01/2000 07:05:00      0.001     0.782     0.012     0.002
   01/01/2000 07:10:00      0.002     0.785     0.012     0.002
   01/01/2000 07:15:00      0.002     0.788     0.012     0.002
   01/01/2000 07:20:00      0.002     0.791     0.013     0.002
   01/01/2000 07:25:00      0.002     0.794     0.013     0.002
   01/01/2000 07:30:00      0.002     0.797     0.013     0.003
   01/01/2000 07:35:00      0.002     0.800     0.013     0.003
   01/01/2000 07:40:00      0.002     0.803     0.013     0.003
   01/01/2000 07:45:00      0.002     0.806     0.013     0.003
   01/01/2000 07:50:00      0.002     0.809     0.013     0.003
   01/01/2000 07:55:00      0.002     0.812     0.013     0.003
   01/01/2000 08:00:00      0.002     0.815     0.013     0.003
   01/01/2000 08:05:00      0.002     0.818     0.013     0.003
   01/01/2000 08:10:00      0.002     0.821     0.013     0.003
   01/01/2000 08:15:00      0.002     0.824     0.013     0.003
   01/01/2000 08:20:00      0.002     0.826     0.013     0.003
   01/01/2000 08:25:00      0.002     0.829     0.013     0.003
   01/01/2000 08:30:00      0.002     0.832     0.013     0.003
   01/01/2000 08:35:00      0.002     0.835     0.013     0.003
   01/01/2000 08:40:00      0.002     0.837     0.013     0.003
   01/01/2000 08:45:00      0.002     0.840     0.013     0.003
   01/01/2000 08:50:00      0.002     0.843     0.013     0.003
   01/01/2000 08:55:00      0.002     0.846     0.014     0.003
   01/01/2000 09:00:00      0.002     0.848     0.014     0.003
   01/01/2000 09:05:00      0.002     0.850     0.014     0.003
   01/01/2000 09:10:00      0.002     0.853     0.014     0.003
   01/01/2000 09:15:00      0.002     0.857     0.014     0.003
   01/01/2000 09:20:00      0.002     0.862     0.014     0.003
   01/01/2000 09:25:00      0.002     0.869     0.014     0.003
   01/01/2000 09:30:00      0.002     0.877     0.014     0.003
   01/01/2000 09:35:00      0.002     0.886     0.014     0.003
   01/01/2000 09:40:00      0.002     0.895     0.015     0.003
   01/01/2000 09:45:00      0.002     0.904     0.015     0.003
   01/01/2000 09:50:00      0.002     0.914     0.015     0.003
   01/01/2000 09:55:00      0.002     0.924     0.015     0.003
   01/01/2000 10:00:00      0.002     0.935     0.015     0.003
   01/01/2000 10:05:00      0.002     0.945     0.016     0.003
   01/01/2000 10:10:00      0.003     0.956     0.016     0.003
   01/01/2000 10:15:00      0.003     0.964     0.016     0.003
   01/01/2000 10:20:00      0.003     0.971     0.016     0.003
   01/01/2000 10:25:00      0.003     0.976     0.016     0.003
   01/01/2000 10:30:00      0.003     0.980     0.016     0.004
   01/01/2000 10:35:00      0.003     0.982     0.016     0.004
   01/01/2000 10:40:00      0.003     0.985     0.016     0.004
   01/01/2000 10:45:00      0.003     0.989     0.017     0.004
   01/01/2000 10:50:00      0.003     0.996     0.017     0.004
   01/01/2000 10:55:00      0.003     1.005     0.017     0.004
   01/01/2000 11:00:00      0.003     1.017     0.017     0.004
   01/01/2000 11:05:00      0.003     1.029     0.018     0.004
   01/01/2000 11:10:00      0.003     1.043     0.018     0.004
   01/01/2000 11:15:00      0.003     1.059     0.018     0.004
   01/01/2000 11:20:00      0.004     1.077     0.019     0.004
   01/01/2000 11:25:00      0.004     1.096     0.019     0.004
   01/01/2000 11:30:00      0.004     1.116     0.020     0.005
   01/01/2000 11:35:00      0.004     1.134     0.020     0.005
   01/01/2000 11:40:00      0.005     1.150     0.021     0.005
   01/01/2000 11:45:00      0.005     1.168     0.021     0.005
   01/01/2000 11:50:00      0.005     1.189     0.022     0.005
   01/01/2000 11:55:00      0.005     1.211     0.023     0.006
   01/01/2000 12:00:00      0.006     1.234     0.023     0.006
   01/01/2000 12:05:00      0.006     1.255     0.024     0.006
   01/01/2000 12:10:00      0.007     1.278     0.025     0.007
   01/01/2000 12:15:00      0.007     1.310     0.026     0.007
   01/01/2000 12:20:00      0.008     1.347     0.027     0.008
   01/01/2000 12:25:00      0.009     1.387     0.028     0.008
   01/01/2000 12:30:00      0.010     1.428     0.030     0.009
   01/01/2000 12:35:00      0.012     1.465     0.034     0.011
   01/01/2000 12:40:00      0.020     1.640     0.044     0.016
   01/01/2000 12:45:00      0.036     2.013     0.058     0.023
   01/01/2000 12:50:00      0.063     2.387     0.074     0.034
   01/01/2000 12:55:00      0.110     3.028     0.092     0.046
   01/01/2000 13:00:00      0.111     3.122     0.091     0.045
   01/01/2000 13:05:00      0.079     2.965     0.075     0.034
   01/01/2000 13:10:00      0.049     2.521     0.060     0.025
   01/01/2000 13:15:00      0.035     2.219     0.052     0.020
   01/01/2000 13:20:00      0.027     2.040     0.046     0.017
   01/01/2000 13:25:00      0.022     1.926     0.042     0.014
   01/01/2000 13:30:00      0.018     1.834     0.038     0.013
   01/01/2000 13:35:00      0.015     1.732     0.035     0.011
   01/01/2000 13:40:00      0.013     1.644     0.033     0.010
   01/01/2000 13:45:00      0.012     1.577     0.031     0.009
   01/01/2000 13:50:00      0.010     1.524     0.030     0.009
   01/01/2000 13:55:00      0.010     1.481     0.029     0.008
   01/01/2000 14:00:00      0.009     1.444     0.028     0.008
   01/01/2000 14:05:00      0.008     1.408     0.027     0.007
   01/01/2000 14:10:00      0.008     1.376     0.026     0.007
   01/01/2000 14:15:00      0.007     1.349     0.025     0.007
   01/01/2000 14:20:00      0.007     1.326     0.024     0.006
   01/01/2000 14:25:00      0.006     1.305     0.024     0.006
   01/01/2000 14:30:00      0.006     1.285     0.023     0.006
   01/01/2000 14:35:00      0.006     1.266     0.023     0.006
   01/01/2000 14:40:00      0.005     1.248     0.022     0.006
   01/01/2000 14:45:00      0.005     1.232     0.022     0.005
   01/01/2000 14:50:00      0.005     1.217     0.021     0.005
   01/01/2000 14:55:00      0.005     1.202     0.021     0.005
   01/01/2000 15:00:00      0.005     1.189     0.020     0.005
   01/01/2000 15:05:00      0.004     1.175     0.020     0.005
   01/01/2000 15:10:00      0.004     1.158     0.020     0.005
   01/01/2000 15:15:00      0.004     1.142     0.019     0.005
   01/01/2000 15:20:00      0.004     1.129     0.019     0.004
   01/01/2000 15:25:00      0.004     1.117     0.019     0.004
   01/01/2000 15:30:00      0.004     1.106     0.019     0.004
   01/01/2000 15:35:00      0.004     1.096     0.018     0.004
   01/01/2000 15:40:00      0.004     1.086     0.018     0.004
   01/01/2000 15:45:00      0.003     1.078     0.018     0.004
   01/01/2000 15:50:00      0.003     1.069     0.018     0.004
   01/01/2000 15:55:00      0.003     1.060     0.018     0.004
   01/01/2000 16:00:00      0.003     1.052     0.017     0.004
   01/01/2000 16:05:00      0.003     1.044     0.017     0.004
   01/01/2000 16:10:00      0.003     1.036     0.017     0.004
   01/01/2000 16:15:00      0.003     1.028     0.017     0.004
   01/01/2000 16:20:00      0.003     1.020     0.017     0.004
   01/01/2000 16:25:00      0.003     1.012     0.017     0.004
   01/01/2000 16:30:00      0.003     1.004     0.016     0.004
   01/01/2000 16:35:00      0.003     0.996     0.016     0.004
   01/01/2000 16:40:00      0.003     0.988     0.016     0.003
   01/01/2000 16:45:00      0.003     0.980     0.016     0.003
   01/01/2000 16:50:00      0.003     0.972     0.016     0.003
   01/01/2000 16:55:00      0.003     0.963     0.016     0.003
   01/01/2000 17:00:00      0.002     0.955     0.015     0.003
   01/01/2000 17:05:00      0.002     0.946     0.015     0.003
   01/01/2000 17:10:00      0.002     0.937     0.015     0.003
   01/01/2000 17:15:00      0.002     0.929     0.015     0.003
   01/01/2000 17:20:00      0.002     0.922     0.015     0.003
   01/01/2000 17:25:00      0.002     0.915     0.015     0.003
   01/01/2000 17:30:00      0.002     0.909     0.015     0.003
   01/01/2000 17:35:00      0.002     0.903     0.014     0.003
   01/01/2000 17:40:00      0.002     0.898     0.014     0.003
   01/01/2000 17:45:00      0.002     0.893     0.014     0.003
   01/01/2000 17:50:00      0.002     0.888     0.014     0.003
   01/01/2000 17:55:00      0.002     0.883     0.014     0.003
   01/01/2000 18:00:00      0.002     0.879     0.014     0.003
   01/01/2000 18:05:00      0.002     0.874     0.014     0.003
   01/01/2000 18:10:00      0.002     0.870     0.014     0.003
   01/01/2000 18:15:00      0.002     0.866     0.014     0.003
   01/01/2000 18:20:00      0.002     0.862     0.014     0.003
   01/01/2000 18:25:00      0.002     0.857     0.014     0.003
   01/01/2000 18:30:00      0.002     0.853     0.013     0.003
   01/01/2000 18:35:00      0.002     0.849     0.013     0.003
   01/01/2000 18:40:00      0.002     0.845     0.013     0.003
   01/01/2000 18:45:00      0.002     0.841     0.013     0.003
   01/01/2000 18:50:00      0.002     0.837     0.013     0.003
   01/01/2000 18:55:00      0.002     0.833     0.013     0.003
   01/01/2000 19:00:00      0.002     0.830     0.013     0.003
   01/01/2000 19:05:00      0.002     0.825     0.013     0.003
   01/01/2000 19:10:00      0.002     0.822     0.013     0.003
   01/01/2000 19:15:00      0.002     0.818     0.013     0.003
   01/01/2000 19:20:00      0.002     0.814     0.013     0.003
   01/01/2000 19:25:00      0.002     0.810     0.013     0.003
   01/01/2000 19:30:00      0.002     0.806     0.013     0.003
   01/01/2000 19:35:00      0.002     0.803     0.013     0.002
   01/01/2000 19:40:00      0.002     0.799     0.012     0.002
   01/01/2000 19:45:00      0.002     0.795     0.012     0.002
   01/01/2000 19:50:00      0.002     0.792     0.012     0.002
   01/01/2000 19:55:00      0.001     0.788     0.012     0.002
   01/01/2000 20:00:00      0.001     0.785     0.012     0.002
   01/01/2000 20:05:00      0.001     0.781     0.012     0.002
   01/01/2000 20:10:00      0.001     0.777     0.012     0.002
   01/01/2000 20:15:00      0.001     0.774     0.012     0.002
   01/01/2000 20:20:00      0.001     0.770     0.012     0.002
   01/01/2000 20:25:00      0.001     0.766     0.012     0.002
   01/01/2000 20:30:00      0.001     0.762     0.012     0.002
   01/01/2000 20:35:00      0.001     0.759     0.012     0.002
   01/01/2000 20:40:00      0.001     0.755     0.012     0.002
   01/01/2000 20:45:00      0.001     0.751     0.012     0.002
   01/01/2000 20:50:00      0.001     0.747     0.012     0.002
   01/01/2000 20:55:00      0.001     0.743     0.011     0.002
   01/01/2000 21:00:00      0.001     0.739     0.011     0.002
   01/01/2000 21:05:00      0.001     0.735     0.011     0.002
   01/01/2000 21:10:00      0.001     0.730     0.011     0.002
   01/01/2000 21:15:00      0.001     0.726     0.011     0.002
   01/01/2000 21:20:00      0.001     0.723     0.011     0.002
   01/01/2000 21:25:00      0.001     0.720     0.011     0.002
   01/01/2000 21:30:00      0.001     0.717     0.011     0.002
   01/01/2000 21:35:00      0.001     0.715     0.011     0.002
   01/01/2000 21:40:00      0.001     0.712     0.011     0.002
   01/01/2000 21:45:00      0.001     0.710     0.011     0.002
   01/01/2000 21:50:00      0.001     0.708     0.011     0.002
   01/01/2000 21:55:00      0.001     0.707     0.011     0.002
   01/01/2000 22:00:00      0.001     0.705     0.011     0.002
   01/01/2000 22:05:00      0.001     0.703     0.011     0.002
   01/01/2000 22:10:00      0.001     0.702     0.011     0.002
   01/01/2000 22:15:00      0.001     0.701     0.011     0.002
   01/01/2000 22:20:00      0.001     0.699     0.011     0.002
   01/01/2000 22:25:00      0.001     0.698     0.011     0.002
   01/01/2000 22:30:00      0.001     0.697     0.011     0.002
   01/01/2000 22:35:00      0.001     0.696     0.011     0.002
   01/01/2000 22:40:00      0.001     0.695     0.011     0.002
   01/01/2000 22:45:00      0.001     0.694     0.011     0.002
   01/01/2000 22:50:00      0.001     0.693     0.011     0.002
   01/01/2000 22:55:00      0.001     0.691     0.011     0.002
   01/01/2000 23:00:00      0.001     0.690     0.011     0.002
   01/01/2000 23:05:00      0.001     0.689     0.011     0.002
   01/01/2000 23:10:00      0.001     0.688     0.011     0.002
   01/01/2000 23:15:00      0.001     0.687     0.011     0.002
   01/01/2000 23:20:00      0.001     0.686     0.011     0.002
   01/01/2000 23:25:00      0.001     0.685     0.010     0.002
   01/01/2000 23:30:00      0.001     0.684     0.010     0.002
   01/01/2000 23:35:00      0.001     0.683     0.010     0.002
   01/01/2000 23:40:00      0.001     0.682     0.010     0.002
   01/01/2000 23:45:00      0.001     0.681     0.010     0.002
   01/01/2000 23:50:00      0.001     0.680     0.010     0.002
   01/01/2000 23:55:00      0.001     0.679     0.010     0.002
   01/02/2000 00:00:00      0.001     0.679     0.010     0.002
  

  Analysis begun on:  Fri Jan 10 11:35:28 2020
  Analysis ended on:  Fri Jan 10 11:35:28 2020
  Total elapsed time: < 1 sec